   Input file: SCM.phr
  Output file: SCM.phr.out
Database file: ./phreeqc/database/llnl.dat

------------------
Reading data base.
------------------

	LLNL_AQUEOUS_MODEL_PARAMETERS
	NAMED_EXPRESSIONS
	SOLUTION_MASTER_SPECIES
	SOLUTION_SPECIES
	PHASES
	EXCHANGE_MASTER_SPECIES
	EXCHANGE_SPECIES
	SURFACE_MASTER_SPECIES
	SURFACE_SPECIES
	RATES
	END
------------------------------------
Reading input data for simulation 1.
------------------------------------

	SURFACE_MASTER_SPECIES 
	Surf_ Surf_OH
	SURFACE_SPECIES
	Surf_OH = Surf_OH   		# montmorillonite protonation reactions 
		log_k	0.0
	Surf_OH + H+ = Surf_OH2+
		log_k	7.29
	Surf_OH = Surf_O- + H+
		log_k	-8.93
	Surf_OH + UO2+2 = Surf_OUO2+ + H+
		log_k  2.6
	END
------------------
End of simulation.
------------------

------------------------------------
Reading input data for simulation 2.
------------------------------------

	SURFACE 1
		sites DENSITY
		Surf_OH		2.31	0.35	12.5	# name of site, site density, specific area/gram, grams
	END
------------------
End of simulation.
------------------

------------------------------------
Reading input data for simulation 3.
------------------------------------

	SELECTED_OUTPUT
	file			output_2.xls
	reset		true
	totals		 
	molalities	UO2+2  UO2+ Surf_OUO2+     
	END
------------------
End of simulation.
------------------

------------------------------------
Reading input data for simulation 4.
------------------------------------

	SOLUTION 1 SGW2
	  temperature	25.0  # [ C]
	  pressure	1.0   # [atm]
	  density	1.0   # [kg/L], default
	  water	1.0   # [kg], default
	  ph		8.2   # Real value (SGW2) 
	  pe 		-1.69 # Eh = -100 mV 
	  redox	pe    # default
	  units	mg/L
	  Na	16.5	#charge
	  K	2.1
	  Ca	34.6
	  Mg	8.3
	  Cl	3.3
	  S	21.0	as SO4	charge
	  C	168.7	CO2(g) -3.00
	  Si	31.2	as SiO2
	  Al 	0.1	# First estimate
	  Fe	0.1	# First estimate
	  U(+6)	1
	END
-------------------------------------------
Beginning of initial solution calculations.
-------------------------------------------

Initial solution 1.	SGW2

-----------------------------Solution composition------------------------------

	Elements           Molality       Moles

	Al                3.707e-06   3.707e-06
	C                 2.650e-03   2.650e-03  Equilibrium with CO2(g)
	Ca                8.636e-04   8.636e-04
	Cl                9.311e-05   9.311e-05
	Fe                1.791e-06   1.791e-06
	K                 5.373e-05   5.373e-05
	Mg                3.416e-04   3.416e-04
	Na                7.179e-04   7.179e-04
	S                 2.044e-04   2.044e-04  Charge balance
	Si                5.195e-04   5.195e-04
	U(6)              4.202e-06   4.202e-06

----------------------------Description of solution----------------------------

                                       pH  =   8.200    
                                       pe  =  -1.690    
                        Activity of water  =   1.000
                 Ionic strength (mol/kgw)  =   4.409e-03
                       Mass of water (kg)  =   1.000e+00
                 Total alkalinity (eq/kg)  =   2.703e-03
                       Total CO2 (mol/kg)  =   2.650e-03
                         Temperature (°C)  =  25.00
                  Electrical balance (eq)  =  -6.061e-15
 Percent error, 100*(Cat-|An|)/(Cat+|An|)  =  -0.00
                               Iterations  =  11
                                  Total H  = 1.110532e+02
                                  Total O  = 5.553512e+01

----------------------------Distribution of species----------------------------

                                               Log       Log       Log    mole V
   Species          Molality    Activity  Molality  Activity     Gamma    cm³/mol

   OH-             1.641e-06   1.527e-06    -5.785    -5.816    -0.031     (0)  
   H+              6.733e-09   6.310e-09    -8.172    -8.200    -0.028      0.00
   H2O             5.553e+01   9.999e-01     1.744    -0.000     0.000     (0)  
Al            3.707e-06
   AlO2-           3.644e-06   3.393e-06    -5.438    -5.469    -0.031     (0)  
   HAlO2           6.249e-08   6.249e-08    -7.204    -7.204     0.000     (0)  
   NaAlO2          4.306e-10   4.306e-10    -9.366    -9.366     0.000     (0)  
   Al(OH)2+        2.910e-10   2.709e-10    -9.536    -9.567    -0.031     (0)  
   AlOH+2          9.784e-13   7.362e-13   -12.009   -12.133    -0.124     (0)  
   Al+3            7.464e-16   4.147e-16   -15.127   -15.382    -0.255     (0)  
   AlSO4+          6.239e-17   5.808e-17   -16.205   -16.236    -0.031     (0)  
   Al(SO4)2-       6.629e-19   6.171e-19   -18.179   -18.210    -0.031     (0)  
   Al2(OH)2+4      2.692e-22   8.814e-23   -21.570   -22.055    -0.485     (0)  
   Al3(OH)4+5      3.336e-27   5.926e-28   -26.477   -27.227    -0.750     (0)  
   Al13O4(OH)24+7   1.481e-35   5.005e-37   -34.830   -36.301    -1.471     (0)  
C(-2)         0.000e+00
   C2H4            0.000e+00   0.000e+00   -96.209   -96.209     0.000     (0)  
C(-3)         0.000e+00
   C2H6            0.000e+00   0.000e+00   -61.896   -61.896     0.000     (0)  
C(-4)         9.775e-36
   CH4             9.775e-36   9.775e-36   -35.010   -35.010     0.000     (0)  
C(2)          2.986e-23
   CO              2.986e-23   2.986e-23   -22.525   -22.525     0.000     (0)  
C(4)          2.650e-03
   HCO3-           2.526e-03   2.351e-03    -2.598    -2.629    -0.031     (0)  
   CO2             3.438e-05   3.441e-05    -4.464    -4.463     0.000     (0)  
   CaCO3           2.353e-05   2.353e-05    -4.628    -4.628     0.000     (0)  
   CO3-2           2.197e-05   1.653e-05    -4.658    -4.782    -0.124     (0)  
   CaHCO3+         1.838e-05   1.711e-05    -4.736    -4.767    -0.031     (0)  
   MgHCO3+         7.219e-06   6.721e-06    -5.142    -5.173    -0.031     (0)  
   MgCO3           4.304e-06   4.304e-06    -5.366    -5.366     0.000     (0)  
   UO2(CO3)3-4     2.618e-06   8.287e-07    -5.582    -6.082    -0.500     (0)  
   NaHCO3          2.238e-06   2.238e-06    -5.650    -5.650     0.000     (0)  
   UO2(CO3)2-2     1.485e-06   1.114e-06    -5.828    -5.953    -0.125     (0)  
   FeHCO3+         6.476e-07   6.029e-07    -6.189    -6.220    -0.031     (0)  
   FeCO3           4.586e-07   4.586e-07    -6.339    -6.339     0.000     (0)  
   NaCO3-          4.134e-08   3.849e-08    -7.384    -7.415    -0.031     (0)  
   (UO2)2CO3(OH)3-   1.700e-08   1.583e-08    -7.769    -7.801    -0.031     (0)  
   UO2CO3          3.503e-09   3.503e-09    -8.456    -8.456     0.000     (0)  
   (UO2)3(CO3)6-6   2.620e-14   1.969e-15   -13.582   -14.706    -1.124     (0)  
   FeCO3+          9.809e-17   9.132e-17   -16.008   -16.039    -0.031     (0)  
   (UO2)3(OH)5CO2+   2.881e-20   2.683e-20   -19.540   -19.571    -0.031     (0)  
   (UO2)3O(OH)2(HCO3)+   2.324e-20   2.163e-20   -19.634   -19.665    -0.031     (0)  
   (UO2)11(CO3)6(OH)12-2   0.000e+00   0.000e+00   -40.901   -41.026    -0.125     (0)  
Ca            8.636e-04
   Ca+2            8.094e-04   6.141e-04    -3.092    -3.212    -0.120     (0)  
   CaCO3           2.353e-05   2.353e-05    -4.628    -4.628     0.000     (0)  
   CaHCO3+         1.838e-05   1.711e-05    -4.736    -4.767    -0.031     (0)  
   CaSO4           1.228e-05   1.228e-05    -4.911    -4.911     0.000     (0)  
   CaOH+           1.476e-08   1.375e-08    -7.831    -7.862    -0.031     (0)  
   CaCl+           1.210e-08   1.126e-08    -7.917    -7.948    -0.031     (0)  
   CaCl2           1.146e-12   1.146e-12   -11.941   -11.941     0.000     (0)  
Cl(-1)        9.311e-05
   Cl-             9.307e-05   8.652e-05    -4.031    -4.063    -0.032     (0)  
   MgCl+           1.786e-08   1.662e-08    -7.748    -7.779    -0.031     (0)  
   CaCl+           1.210e-08   1.126e-08    -7.917    -7.948    -0.031     (0)  
   NaCl            1.012e-08   1.012e-08    -7.995    -7.995     0.000     (0)  
   KCl             1.450e-10   1.450e-10    -9.839    -9.839     0.000     (0)  
   FeCl+           3.308e-11   3.080e-11   -10.480   -10.512    -0.031     (0)  
   CaCl2           1.146e-12   1.146e-12   -11.941   -11.941     0.000     (0)  
   HCl             1.226e-13   1.226e-13   -12.911   -12.911     0.000     (0)  
   FeCl2           1.430e-17   1.430e-17   -16.845   -16.845     0.000     (0)  
   UO2Cl+          5.838e-18   5.435e-18   -17.234   -17.265    -0.031     (0)  
   UO2Cl2          2.407e-23   2.407e-23   -22.618   -22.618     0.000     (0)  
   FeCl4-2         4.122e-25   3.093e-25   -24.385   -24.510    -0.125     (0)  
   FeCl+2          1.832e-26   1.379e-26   -25.737   -25.860    -0.124     (0)  
   FeCl2+          1.037e-27   9.658e-28   -26.984   -27.015    -0.031     (0)  
   FeCl4-          9.336e-39   8.692e-39   -38.030   -38.061    -0.031     (0)  
Cl(1)         0.000e+00
   ClO-            0.000e+00   0.000e+00   -49.120   -49.151    -0.031     (0)  
   HClO            0.000e+00   0.000e+00   -49.782   -49.782     0.000     (0)  
Cl(3)         0.000e+00
   ClO2-           0.000e+00   0.000e+00   -87.104   -87.135    -0.031     (0)  
   HClO2           0.000e+00   0.000e+00   -92.165   -92.165     0.000     (0)  
Cl(5)         0.000e+00
   ClO3-           0.000e+00   0.000e+00  -111.234  -111.265    -0.031     (0)  
   UO2ClO3+        0.000e+00   0.000e+00  -124.103  -124.134    -0.031     (0)  
Cl(7)         0.000e+00
   ClO4-           0.000e+00   0.000e+00  -139.667  -139.698    -0.031     (0)  
Fe(2)         1.787e-06
   FeHCO3+         6.476e-07   6.029e-07    -6.189    -6.220    -0.031     (0)  
   Fe+2            6.440e-07   4.886e-07    -6.191    -6.311    -0.120     (0)  
   FeCO3           4.586e-07   4.586e-07    -6.339    -6.339     0.000     (0)  
   FeOH+           2.630e-08   2.448e-08    -7.580    -7.611    -0.031     (0)  
   FeSO4           1.060e-08   1.060e-08    -7.975    -7.975     0.000     (0)  
   FeCl+           3.308e-11   3.080e-11   -10.480   -10.512    -0.031     (0)  
   Fe(OH)2         3.082e-11   3.082e-11   -10.511   -10.511     0.000     (0)  
   Fe(OH)3-        2.089e-13   1.945e-13   -12.680   -12.711    -0.031     (0)  
   FeCl2           1.430e-17   1.430e-17   -16.845   -16.845     0.000     (0)  
   Fe(OH)4-2       4.107e-20   3.082e-20   -19.386   -19.511    -0.125     (0)  
   FeCl4-2         4.122e-25   3.093e-25   -24.385   -24.510    -0.125     (0)  
Fe(3)         4.025e-09
   Fe(OH)3         3.807e-09   3.807e-09    -8.419    -8.419     0.000     (0)  
   Fe(OH)4-        1.628e-10   1.515e-10    -9.788    -9.819    -0.031     (0)  
   Fe(OH)2+        5.516e-11   5.135e-11   -10.258   -10.289    -0.031     (0)  
   FeOH+2          1.301e-15   9.786e-16   -14.886   -15.009    -0.124     (0)  
   FeCO3+          9.809e-17   9.132e-17   -16.008   -16.039    -0.031     (0)  
   Fe+3            1.722e-21   9.564e-22   -20.764   -21.019    -0.255     (0)  
   FeSO4+          1.360e-23   1.267e-23   -22.866   -22.897    -0.031     (0)  
   Fe(SO4)2-       3.148e-26   2.931e-26   -25.502   -25.533    -0.031     (0)  
   FeCl+2          1.832e-26   1.379e-26   -25.737   -25.860    -0.124     (0)  
   FeCl2+          1.037e-27   9.658e-28   -26.984   -27.015    -0.031     (0)  
   Fe2(OH)2+4      7.873e-29   2.578e-29   -28.104   -28.589    -0.485     (0)  
   Fe3(OH)4+5      1.557e-36   2.766e-37   -35.808   -36.558    -0.750     (0)  
   FeCl4-          9.336e-39   8.692e-39   -38.030   -38.061    -0.031     (0)  
H(0)          1.514e-16
   H2              7.570e-17   7.578e-17   -16.121   -16.120     0.000     (0)  
K             5.373e-05
   K+              5.367e-05   4.989e-05    -4.270    -4.302    -0.032     (0)  
   KSO4-           5.920e-08   5.512e-08    -7.228    -7.259    -0.031     (0)  
   KCl             1.450e-10   1.450e-10    -9.839    -9.839     0.000     (0)  
   KOH             2.741e-11   2.741e-11   -10.562   -10.562     0.000     (0)  
   KHSO4           3.068e-16   3.068e-16   -15.513   -15.513     0.000     (0)  
Mg            3.416e-04
   Mg+2            3.211e-04   2.461e-04    -3.493    -3.609    -0.115     (0)  
   MgSO4           8.995e-06   8.995e-06    -5.046    -5.046     0.000     (0)  
   MgHCO3+         7.219e-06   6.721e-06    -5.142    -5.173    -0.031     (0)  
   MgCO3           4.304e-06   4.304e-06    -5.366    -5.366     0.000     (0)  
   MgCl+           1.786e-08   1.662e-08    -7.748    -7.779    -0.031     (0)  
   Mg4(OH)4+4      1.257e-21   4.115e-22   -20.901   -21.386    -0.485     (0)  
Na            7.179e-04
   Na+             7.147e-04   6.654e-04    -3.146    -3.177    -0.031     (0)  
   NaHCO3          2.238e-06   2.238e-06    -5.650    -5.650     0.000     (0)  
   NaSO4-          6.463e-07   6.017e-07    -6.190    -6.221    -0.031     (0)  
   NaHSiO3         2.890e-07   2.890e-07    -6.539    -6.539     0.000     (0)  
   NaCO3-          4.134e-08   3.849e-08    -7.384    -7.415    -0.031     (0)  
   NaCl            1.012e-08   1.012e-08    -7.995    -7.995     0.000     (0)  
   NaAlO2          4.306e-10   4.306e-10    -9.366    -9.366     0.000     (0)  
   NaOH            1.753e-10   1.753e-10    -9.756    -9.756     0.000     (0)  
O(0)          0.000e+00
   O2              0.000e+00   0.000e+00   -59.956   -59.955     0.000     (0)  
S(-2)         4.176e-31
   HS-             3.939e-31   3.665e-31   -30.405   -30.436    -0.031     (0)  
   H2S             2.364e-32   2.364e-32   -31.626   -31.626     0.000     (0)  
   S-2             9.127e-36   6.887e-36   -35.040   -35.162    -0.122     (0)  
   S2-2            0.000e+00   0.000e+00   -57.467   -57.592    -0.125     (0)  
   S3-2            0.000e+00   0.000e+00   -79.938   -80.063    -0.125     (0)  
   S4-2            0.000e+00   0.000e+00  -102.637  -102.761    -0.125     (0)  
   S5-2            0.000e+00   0.000e+00  -125.552  -125.676    -0.125     (0)  
S(2)          5.433e-38
   S2O3-2          2.716e-38   2.038e-38   -37.566   -37.691    -0.125     (0)  
   HS2O3-          0.000e+00   0.000e+00   -44.846   -44.877    -0.031     (0)  
   UO2S2O3         0.000e+00   0.000e+00   -48.841   -48.841     0.000     (0)  
S(3)          0.000e+00
   S2O4-2          0.000e+00   0.000e+00   -52.474   -52.597    -0.122     (0)  
S(4)          4.526e-21
   SO3-2           4.164e-21   3.134e-21   -20.380   -20.504    -0.124     (0)  
   HSO3-           3.620e-22   3.370e-22   -21.441   -21.472    -0.031     (0)  
   UO2SO3          7.496e-28   7.496e-28   -27.125   -27.125     0.000     (0)  
   H2SO3           2.038e-28   2.038e-28   -27.691   -27.691     0.000     (0)  
   SO2             1.618e-28   1.618e-28   -27.791   -27.791     0.000     (0)  
   S2O6-2          0.000e+00   0.000e+00   -45.394   -45.518    -0.125     (0)  
   UO2(SO3)2-2     0.000e+00   0.000e+00   -46.347   -46.472    -0.125     (0)  
   S3O6-2          0.000e+00   0.000e+00   -70.348   -70.472    -0.125     (0)  
   S4O6-2          0.000e+00   0.000e+00   -79.396   -79.521    -0.125     (0)  
   S5O6-2          0.000e+00   0.000e+00  -117.324  -117.449    -0.125     (0)  
S(5)          0.000e+00
   S2O5-2          0.000e+00   0.000e+00   -47.650   -47.775    -0.125     (0)  
S(6)          2.044e-04
   SO4-2           1.824e-04   1.369e-04    -3.739    -3.864    -0.125     (0)  
   CaSO4           1.228e-05   1.228e-05    -4.911    -4.911     0.000     (0)  
   MgSO4           8.995e-06   8.995e-06    -5.046    -5.046     0.000     (0)  
   NaSO4-          6.463e-07   6.017e-07    -6.190    -6.221    -0.031     (0)  
   KSO4-           5.920e-08   5.512e-08    -7.228    -7.259    -0.031     (0)  
   FeSO4           1.060e-08   1.060e-08    -7.975    -7.975     0.000     (0)  
   HSO4-           9.370e-11   8.724e-11   -10.028   -10.059    -0.031     (0)  
   UO2SO4          7.027e-15   7.027e-15   -14.153   -14.153     0.000     (0)  
   KHSO4           3.068e-16   3.068e-16   -15.513   -15.513     0.000     (0)  
   AlSO4+          6.239e-17   5.808e-17   -16.205   -16.236    -0.031     (0)  
   UO2(SO4)2-2     1.136e-17   8.523e-18   -16.945   -17.069    -0.125     (0)  
   Al(SO4)2-       6.629e-19   6.171e-19   -18.179   -18.210    -0.031     (0)  
   H2SO4           5.193e-22   5.193e-22   -21.285   -21.285     0.000     (0)  
   FeSO4+          1.360e-23   1.267e-23   -22.866   -22.897    -0.031     (0)  
   Fe(SO4)2-       3.148e-26   2.931e-26   -25.502   -25.533    -0.031     (0)  
S(7)          0.000e+00
   S2O8-2          0.000e+00   0.000e+00   -76.435   -76.560    -0.125     (0)  
S(8)          0.000e+00
   HSO5-           0.000e+00   0.000e+00   -59.271   -59.302    -0.031     (0)  
Si            5.195e-04
   SiO2            5.093e-04   5.093e-04    -3.293    -3.293     0.000     (0)  
   HSiO3-          9.903e-06   9.219e-06    -5.004    -5.035    -0.031     (0)  
   NaHSiO3         2.890e-07   2.890e-07    -6.539    -6.539     0.000     (0)  
   H2SiO4-2        1.869e-10   1.403e-10    -9.728    -9.853    -0.125     (0)  
   H6(H2SiO4)4-2   5.157e-11   3.869e-11   -10.288   -10.412    -0.125     (0)  
   H4(H2SiO4)4-4   1.539e-16   4.871e-17   -15.813   -16.312    -0.500     (0)  
U(6)          4.202e-06
   UO2(CO3)3-4     2.618e-06   8.287e-07    -5.582    -6.082    -0.500     (0)  
   UO2(CO3)2-2     1.485e-06   1.114e-06    -5.828    -5.953    -0.125     (0)  
   UO2(OH)2        5.140e-08   5.140e-08    -7.289    -7.289     0.000     (0)  
   (UO2)2CO3(OH)3-   1.700e-08   1.583e-08    -7.769    -7.801    -0.031     (0)  
   UO2(OH)3-       1.083e-08   1.009e-08    -7.965    -7.996    -0.031     (0)  
   UO2CO3          3.503e-09   3.503e-09    -8.456    -8.456     0.000     (0)  
   UO2OH+          4.449e-11   4.142e-11   -10.352   -10.383    -0.031     (0)  
   UO2+2           5.612e-14   4.223e-14   -13.251   -13.374    -0.124     (0)  
   UO2(OH)4-2      3.320e-14   2.491e-14   -13.479   -13.604    -0.125     (0)  
   (UO2)3(CO3)6-6   2.620e-14   1.969e-15   -13.582   -14.706    -1.124     (0)  
   (UO2)3(OH)7-    1.806e-14   1.682e-14   -13.743   -13.774    -0.031     (0)  
   UO2SO4          7.027e-15   7.027e-15   -14.153   -14.153     0.000     (0)  
   (UO2)3(OH)5+    2.060e-15   1.917e-15   -14.686   -14.717    -0.031     (0)  
   (UO2)2(OH)2+2   1.384e-16   1.041e-16   -15.859   -15.982    -0.124     (0)  
   UO2(SO4)2-2     1.136e-17   8.523e-18   -16.945   -17.069    -0.125     (0)  
   UO2Cl+          5.838e-18   5.435e-18   -17.234   -17.265    -0.031     (0)  
   (UO2)4(OH)7+    9.602e-19   8.940e-19   -18.018   -18.049    -0.031     (0)  
   (UO2)3(OH)4+2   7.433e-20   5.593e-20   -19.129   -19.252    -0.124     (0)  
   (UO2)3(OH)5CO2+   2.881e-20   2.683e-20   -19.540   -19.571    -0.031     (0)  
   (UO2)3O(OH)2(HCO3)+   2.324e-20   2.163e-20   -19.634   -19.665    -0.031     (0)  
   (UO2)2OH+3      1.046e-21   5.546e-22   -20.981   -21.256    -0.275     (0)  
   UO2Cl2          2.407e-23   2.407e-23   -22.618   -22.618     0.000     (0)  
   UO2SO3          7.496e-28   7.496e-28   -27.125   -27.125     0.000     (0)  
   (UO2)11(CO3)6(OH)12-2   0.000e+00   0.000e+00   -40.901   -41.026    -0.125     (0)  
   UO2(SO3)2-2     0.000e+00   0.000e+00   -46.347   -46.472    -0.125     (0)  
   UO2S2O3         0.000e+00   0.000e+00   -48.841   -48.841     0.000     (0)  
   UO2ClO3+        0.000e+00   0.000e+00  -124.103  -124.134    -0.031     (0)  

------------------------------Saturation indices-------------------------------

  Phase               SI** log IAP   log K(298 K,   1 atm)

  Afwillite       -26.98     32.98   59.96  Ca3Si2O4(OH)6
  Akermanite      -12.65     32.58   45.23  Ca2MgSi2O7
  Al              -95.73     54.18  149.91  Al
  Al(g)          -146.43     54.18  200.62  Al
  Al2(SO4)3       -61.25    -42.36   18.90  Al2(SO4)3
  Al2(SO4)3:6H2O  -43.91    -42.36    1.56  Al2(SO4)3:6H2O
  Albite            1.70      4.36    2.66  NaAlSi3O8
  Albite_high       0.39      4.36    3.98  NaAlSi3O8
  Albite_low        1.70      4.36    2.66  NaAlSi3O8
  Alum-K          -22.44    -27.41   -4.97  KAl(SO4)2:12H2O
  Alunite          -8.51     -8.98   -0.47  KAl3(OH)6(SO4)2
  Amesite-14A       6.17     81.45   75.27  Mg4Al4Si2O10(OH)8
  Analcime          0.89      6.95    6.06  Na.96Al.96Si2.04O6:H2O
  Analcime-dehy    -5.47      6.95   12.42  Na.96Al.96Si2.04O6
  Andalusite       -0.74     15.14   15.88  Al2SiO5
  Andradite         3.66     36.85   33.19  Ca3Fe2(SiO4)3
  Anhydrite        -2.73     -7.08   -4.35  CaSO4
  Annite            4.17     33.50   29.33  KFe3AlSi3O10(OH)2
  Anorthite        -1.44     25.04   26.48  CaAl2(SiO4)2
  Antarcticite    -15.43    -11.34    4.09  CaCl2:6H2O
  Anthophyllite    -3.28     63.19   66.48  Mg7Si8O22(OH)2
  Antigorite       26.38    502.01  475.63  Mg48Si34O85(OH)62
  Aphthitalite    -19.92    -23.81   -3.89  NaK3(SO4)2
  Aragonite         0.39      2.36    1.97  CaCO3
  Arcanite        -10.62    -12.47   -1.84  K2SO4
  Artinite         -4.87     14.75   19.63  Mg2CO3(OH)2:3H2O
  Bassanite        -3.37     -7.08   -3.71  CaSO4:0.5H2O
  Beidellite-Ca     6.12     11.57    5.44  Ca.165Al2.33Si3.67O10(OH)2
  Beidellite-H      4.90      9.39    4.49  H.33Al2.33Si3.67O10(OH)2
  Beidellite-K      5.52     10.68    5.16  K.33Al2.33Si3.67O10(OH)2
  Beidellite-Mg     6.10     11.50    5.41  Mg.165Al2.33Si3.67O10(OH)2
  Beidellite-Na     5.55     11.05    5.50  Na.33Al2.33Si3.67O10(OH)2
  Bischofite      -16.13    -11.73    4.39  MgCl2:6H2O
  Bloedite        -15.21    -17.69   -2.48  Na2Mg(SO4)2:4H2O
  Boehmite          1.67      9.22    7.55  AlO2H
  Boltwoodite     -11.26      3.63   14.89  K(H3O)(UO2)SiO4
  Boltwoodite-Na  -10.17      4.42   14.58  Na.7K.3(H3O)(UO2)SiO4:H2O
  Brucite          -3.49     12.79   16.28  Mg(OH)2
  Burkeite        -30.70    -21.22    9.49  Na6CO3(SO4)2
  C               -15.02     49.13   64.15  C
  C(g)           -132.64     49.13  181.77  C
  Ca              -96.67     43.17  139.83  Ca
  Ca(g)          -121.91     43.17  165.07  Ca
  Ca-Al_Pyroxene   -7.57     28.33   35.90  CaAl2SiO6
  Ca2Al2O5:8H2O   -14.76     44.81   59.57  Ca2Al2O5:8H2O
  Ca2Cl2(OH)2:H2O -24.44      1.85   26.29  Ca2Cl2(OH)2:H2O
  Ca3Al2O6        -55.03     58.00  113.03  Ca3Al2O6
  Ca4Al2Fe2O10    -62.13     78.35  140.48  Ca4Al2Fe2O10
  Ca4Al2O7:13H2O  -36.07     71.19  107.25  Ca4Al2O7:13H2O
  Ca4Al2O7:19H2O  -32.49     71.19  103.68  Ca4Al2O7:19H2O
  Ca4Cl2(OH)6:13H2O -40.10     28.23   68.33  Ca4Cl2(OH)6:13H2O
  CaAl2O4         -15.28     31.62   46.91  CaAl2O4
  CaAl2O4:10H2O    -6.37     31.62   37.99  CaAl2O4:10H2O
  CaAl4O7         -18.53     50.06   68.59  CaAl4O7
  Calcite           0.53      2.36    1.82  CaCO3
  Carnallite      -24.37    -20.10    4.27  KMgCl3:6H2O
  CaSO4:0.5H2O(beta)  -3.54     -7.08   -3.54  CaSO4:0.5H2O
  CaUO4             0.28     16.21   15.94  CaUO4
  Celadonite        5.42     12.73    7.31  KMgAlSi4O10(OH)2
  CH4(g)          -32.17    -35.01   -2.84  CH4
  Chalcedony        0.46     -3.29   -3.76  SiO2
  Chamosite-7A      2.56     35.32   32.76  Fe2Al2SiO5(OH)4
  Chloromagnesite -33.55    -11.73   21.82  MgCl2
  Chrysotile        0.76     31.79   31.03  Mg3Si2O5(OH)4
  Cl2(g)          -57.50    -54.50    2.99  Cl2
  Clinochlore-14A   5.46     72.51   67.05  Mg5Al2Si3O10(OH)8
  Clinochlore-7A    2.09     72.51   70.42  Mg5Al2Si3O10(OH)8
  Clinoptilolite-Ca  14.38      6.87   -7.52  Ca1.7335Al3.45Fe.017Si14.533O36:10.922H2O
  Clinoptilolite-dehy-Ca -21.27      6.87   28.14  Ca1.7335Al3.45Fe.017Si14.533O36
  Clinoptilolite-dehy-K -26.69     -2.48   24.20  K3.467Al3.45Fe.017Si14.533O36
  Clinoptilolite-dehy-Na -26.59      1.42   28.01  Na3.467Al3.45Fe.017Si14.533O36
  Clinoptilolite-hy-Ca  14.38      6.87   -7.52  Ca1.7335Al3.45Fe.017Si14.533O36:11.645H2O
  Clinoptilolite-hy-K   8.97     -2.48  -11.45  K3.467Al3.45Fe.017Si14.533O36:7.499H2O
  Clinoptilolite-hy-Na   9.07      1.42   -7.65  Na3.467Al3.45Fe.017Si14.533O36:10.877H2O
  Clinoptilolite-K   8.97     -2.48  -11.45  K3.467Al3.45Fe.017Si14.533O36:10.922H2O
  Clinoptilolite-Na   9.06      1.42   -7.64  Na3.467Al3.45Fe.017Si14.533O36:10.922H2O
  Clinozoisite      1.05     44.15   43.10  Ca2Al3Si3O12(OH)
  CO(g)           -19.53    -22.52   -3.00  CO
  CO2(g)           -3.00    -10.83   -7.83  CO2
  Coesite          -0.07     -3.29   -3.22  SiO2
  Cordierite_anhyd  -6.08     45.99   52.07  Mg2Al4Si5O18
  Cordierite_hydr  -3.60     45.99   49.59  Mg2Al4Si5O18:H2O
  Corundum          0.14     18.44   18.29  Al2O3
  Cristobalite(alpha)   0.18     -3.29   -3.48  SiO2
  Cristobalite(beta)  -0.26     -3.29   -3.03  SiO2
  Cronstedtite-7A   7.87     24.05   16.18  Fe2Fe2SiO5(OH)4
  Daphnite-14A      6.90     59.00   52.10  Fe5AlAlSi3O10(OH)8
  Daphnite-7A       3.52     59.00   55.48  Fe5AlAlSi3O10(OH)8
  Dawsonite        -0.93      3.41    4.34  NaAlCO3(OH)2
  Diaspore          2.07      9.22    7.15  AlHO2
  Dicalcium_silicate -14.04     23.08   37.13  Ca2SiO4
  Diopside         -1.49     19.39   20.89  CaMgSi2O6
  Dolomite          1.85      4.32    2.47  CaMg(CO3)2
  Dolomite-dis      0.31      4.32    4.01  CaMg(CO3)2
  Dolomite-ord      1.86      4.32    2.46  CaMg(CO3)2
  Enstatite        -1.79      9.50   11.29  MgSiO3
  Epidote           5.74     38.51   32.77  Ca2FeAl2Si3O12OH
  Epidote-ord       5.75     38.51   32.76  FeCa2Al2(OH)(SiO4)3
  Epsomite         -5.51     -7.47   -1.96  MgSO4:7H2O
  Ettringite      -25.69     36.77   62.46  Ca6Al2(SO4)3(OH)12:26H2O
  Fayalite         -2.18     16.88   19.06  Fe2SiO4
  Fe              -18.95     40.07   59.02  Fe
  Fe(OH)2          -3.81     10.09   13.89  Fe(OH)2
  Fe(OH)3          -2.06      3.58    5.64  Fe(OH)3
  Fe2(SO4)3       -56.68    -53.63    3.05  Fe2(SO4)3
  FeO              -3.43     10.09   13.52  FeO
  Ferrite-Ca       -1.15     20.35   21.50  CaFe2O4
  Ferrite-Dicalcium -23.26     33.54   56.80  Ca2Fe2O5
  Ferrite-Mg       -1.07     19.95   21.02  MgFe2O4
  Ferrosilite      -0.61      6.80    7.41  FeSiO3
  FeSO4           -12.78    -10.17    2.61  FeSO4
  Forsterite       -5.52     22.29   27.81  Mg2SiO4
  Foshagite       -22.93     42.87   65.80  Ca4Si3O9(OH)2:0.5H2O
  Gaylussite       -9.59      1.58   11.16  CaNa2(CO3)2:5H2O
  Gehlenite       -14.70     41.52   56.22  Ca2Al2SiO7
  Gibbsite          1.48      9.22    7.74  Al(OH)3
  Gismondine        8.36     50.07   41.72  Ca2Al4Si4O16:9H2O
  Glauberite      -11.82    -17.29   -5.47  Na2Ca(SO4)2
  Goethite          3.05      3.58    0.53  FeOOH
  Greenalite        1.10     23.68   22.58  Fe3Si2O5(OH)4
  Grossular        -3.66     48.12   51.78  Ca3Al2(SiO4)3
  Gypsum           -2.54     -7.08   -4.53  CaSO4:2H2O
  Gyrolite         -6.31     16.50   22.80  Ca2Si3O7(OH)2:1.5H2O
  H2(g)           -13.02    -16.12   -3.10  H2
  H2O(g)           -1.59     -0.00    1.59  H2O
  H2S(g)          -30.64    -38.64   -7.99  H2S
  Haiweeite         6.52     -0.52   -7.04  Ca(UO2)2(Si2O5)3:5H2O
  Halite           -8.80     -7.24    1.56  NaCl
  Hatrurite       -37.08     36.27   73.35  Ca3SiO5
  HCl(g)          -18.56    -12.26    6.30  HCl
  Hedenbergite     -2.84     16.69   19.53  CaFe(SiO3)2
  Hematite          7.09      7.16    0.08  Fe2O3
  Hercynite        -0.28     28.52   28.80  FeAl2O4
  Hexahydrite      -5.75     -7.47   -1.73  MgSO4:6H2O
  Hillebrandite   -13.69     23.08   36.77  Ca2SiO3(OH)2:0.17H2O
  Huntite          -1.97      8.25   10.22  CaMg3(CO3)4
  Hydromagnesite  -10.10     20.64   30.74  Mg5(CO3)4(OH)2:4H2O
  Hydrophilite    -23.08    -11.34   11.75  CaCl2
  Ice              -0.14     -0.00    0.14  H2O
  Illite            6.33     15.21    8.88  K0.6Mg0.25Al1.8Al0.5Si3.5O10(OH)2
  Jadeite          -0.65      7.65    8.31  NaAl(SiO3)2
  Jarosite        -16.48    -25.89   -9.41  KFe3(SO4)2(OH)6
  Jarosite-Na     -19.31    -24.76   -5.45  NaFe3(SO4)2(OH)6
  K               -52.09     18.89   70.98  K
  K(g)            -62.69     18.89   81.58  K
  K-Feldspar        3.62      3.24   -0.38  KAlSi3O8
  K2CO3:1.5H2O    -16.41     -3.03   13.38  K2CO3:1.5H2O
  K2O             -76.24      7.80   84.04  K2O
  K2UO4           -23.05     10.82   33.87  K2UO4
  K3H(SO4)2       -25.21    -28.83   -3.62  K3H(SO4)2
  K8H4(CO3)6:3H2O -61.50    -33.79   27.71  K8H4(CO3)6:3H2O
  Kainite         -15.53    -15.84   -0.31  KMgClSO4:3H2O
  KAl(SO4)2       -30.68    -27.41    3.27  KAl(SO4)2
  Kalicinite       -7.21     -6.93    0.28  KHCO3
  Kalsilite        -1.03      9.82   10.85  KAlSiO4
  Kaolinite         5.13     11.85    6.72  Al2Si2O5(OH)4
  Katoite         -20.94     58.00   78.94  Ca3Al2H12O12
  Kieserite        -7.21     -7.47   -0.27  MgSO4:H2O
  KMgCl3          -41.35    -20.10   21.25  KMgCl3
  KMgCl3:2H2O     -34.06    -20.10   13.96  KMgCl3:2H2O
  KNaCO3:6H2O     -12.17     -1.91   10.26  KNaCO3:6H2O
  Kyanite          -0.47     15.14   15.61  Al2SiO5
  Lansfordite      -2.88      1.96    4.84  MgCO3:5H2O
  Larnite         -15.34     23.08   38.42  Ca2SiO4
  Laumontite        4.94     18.45   13.51  CaAl2Si4O12:4H2O
  Lawrencite      -23.49    -14.44    9.05  FeCl2
  Lawsonite         2.93     25.04   22.11  CaAl2Si2O7(OH)2:H2O
  Leonite         -15.83    -19.94   -4.11  K2Mg(SO4)2:4H2O
  Lime            -19.38     13.19   32.57  CaO
  Magnesite        -0.31      1.96    2.27  MgCO3
  Magnetite         6.83     17.25   10.42  Fe3O4
  Margarite         2.55     43.47   40.93  CaAl4Si2O10(OH)2
  Maximum_Microcline   3.62      3.24   -0.38  KAlSi3O8
  Mayenite       -206.85    287.31  494.15  Ca12Al14O33
  Melanterite      -7.78    -10.18   -2.40  FeSO4:7H2O
  Mercallite      -14.93    -16.37   -1.44  KHSO4
  Merwinite       -22.64     45.77   68.41  MgCa3(SiO4)2
  Mesolite          7.00     20.49   13.49  Na.676Ca.657Al1.99Si3.01O10:2.647H2O
  Mg              -79.75     42.77  122.52  Mg
  Mg(g)           -99.48     42.77  142.25  Mg
  Mg1.25SO4(OH)0.5:0.5H2O  -9.47     -4.27    5.20  Mg1.25SO4(OH)0.5:0.5H2O
  Mg1.5SO4(OH)    -10.29     -1.08    9.21  Mg1.5SO4(OH)
  MgCl2:2H2O      -24.47    -11.73   12.73  MgCl2:2H2O
  MgCl2:4H2O      -19.04    -11.73    7.30  MgCl2:4H2O
  MgCl2:H2O       -27.81    -11.73   16.07  MgCl2:H2O
  MgOHCl          -15.36      0.53   15.89  MgOHCl
  MgSO4           -12.30     -7.47    4.83  MgSO4
  MgUO4            -7.18     15.82   22.99  MgUO4
  Minnesotaite      3.26     17.09   13.83  Fe3Si4O10(OH)2
  Mirabilite       -9.06    -10.22   -1.15  Na2SO4:10H2O
  Misenite        -99.59   -110.66  -11.08  K8H6(SO4)7
  Molysite        -46.68    -33.21   13.47  FeCl3
  Monohydrocalcite  -0.32      2.36    2.68  CaCO3:H2O
  Monticellite     -6.85     22.69   29.53  CaMgSiO4
  Montmor-Ca        6.27      8.62    2.34  Ca.165Mg.33Al1.67Si4O10(OH)2
  Montmor-K         5.74      7.73    1.99  K.33Mg.33Al1.67Si4O10(OH)2
  Montmor-Mg        6.32      8.55    2.23  Mg.495Al1.67Si4O10(OH)2
  Montmor-Na        5.77      8.10    2.33  Na.33Mg.33Al1.67Si4O10(OH)2
  Mordenite         2.99     -2.37   -5.36  Ca.2895Na.361Al.94Si5.06O12:3.468H2O
  Mordenite-dehy  -12.13     -2.37    9.77  Ca.2895Na.361Al.94Si5.06O12
  Muscovite         8.23     21.67   13.45  KAl3Si3O10(OH)2
  Na              -47.36     20.01   67.37  Na
  Na(g)           -60.85     20.01   80.86  Na
  Na2CO3          -11.95     -0.78   11.16  Na2CO3
  Na2CO3:7H2O     -10.72     -0.78    9.94  Na2CO3:7H2O
  Na2O            -57.37     10.05   67.42  Na2O
  Na2SiO3         -15.45      6.75   22.20  Na2SiO3
  Na2U2O7          -6.49     16.10   22.59  Na2U2O7
  Na2UO4(alpha)   -16.94     13.07   30.02  Na2UO4
  Na3H(SO4)2      -24.57    -25.46   -0.89  Na3H(SO4)2
  Na4Ca(SO4)3:2H2O -21.62    -27.51   -5.89  Na4Ca(SO4)3:2H2O
  Na4SiO4         -53.80     16.80   70.60  Na4SiO4
  Na4UO2(CO3)3    -13.41     -9.37    4.04  Na4UO2(CO3)3
  Na6Si2O7        -77.98     23.55  101.53  Na6Si2O7
  NaFeO2          -11.28      8.60   19.88  NaFeO2
  Nahcolite        -5.66     -5.81   -0.14  NaHCO3
  Natrolite         0.21     18.60   18.39  Na2Al2Si3O10:2H2O
  Natron          -10.37     -0.78    9.59  Na2CO3:10H2O
  Natrosilite     -14.61      3.46   18.07  Na2Si2O5
  Nepheline        -2.80     10.95   13.75  NaAlSiO4
  Nesquehonite     -3.33      1.96    5.29  MgCO3:3H2O
  Nontronite-Ca    12.02      0.29  -11.73  Ca.165Fe2Al.33Si3.67H2O12
  Nontronite-H     10.81     -1.88  -12.69  H.33Fe2Al.33Si3.67H2O12
  Nontronite-K     11.42     -0.60  -12.01  K.33Fe2Al.33Si3.67H2O12
  Nontronite-Mg    12.00      0.23  -11.77  Mg.165Fe2Al.33Si3.67H2O12
  Nontronite-Na    11.45     -0.22  -11.68  Na.33Fe2Al.33Si3.67H2O12
  O2(g)           -57.06    -59.96   -2.89  O2
  Okenite          -3.71      6.60   10.31  CaSi2O4(OH)2:H2O
  Oxychloride-Mg  -12.51     13.32   25.83  Mg2Cl(OH)3:4H2O
  Paragonite        5.42     22.80   17.38  NaAl3Si3O10(OH)2
  Pargasite       -11.24     90.46  101.70  NaCa2Al3Mg4Si6O22(OH)2
  Pentahydrite     -6.09     -7.47   -1.39  MgSO4:5H2O
  Periclase        -8.53     12.79   21.33  MgO
  Phlogopite        4.31     41.61   37.30  KAlMg3Si3O10(OH)2
  Picromerite     -15.50    -19.94   -4.44  K2Mg(SO4)2:6H2O
  Pirssonite       -9.75      1.58   11.32  Na2Ca(CO3)2:2H2O
  Polyhalite      -19.78    -34.09  -14.31  K2MgCa2(SO4)4:2H2O
  Portlandite      -9.36     13.19   22.55  Ca(OH)2
  Prehnite          2.14     34.93   32.79  Ca2Al2Si3O10(OH)2
  Pseudowollastonite  -4.07      9.90   13.96  CaSiO3
  Pyrite          -37.89    -62.59  -24.70  FeS2
  Pyrophyllite      4.97      5.26    0.29  Al2Si4O10(OH)2
  Pyrrhotite      -24.81    -28.55   -3.74  FeS
  Quartz            0.73     -3.29   -4.03  SiO2
  Rankinite       -18.84     32.98   51.82  Ca3Si2O7
  Ripidolite-14A    6.33     67.11   60.78  Mg3Fe2Al2Si3O10(OH)8
  Ripidolite-7A     2.95     67.11   64.16  Mg3Fe2Al2Si3O10(OH)8
  Rutherfordine    -3.68     -7.80   -4.12  UO2CO3
  S               -23.50    -68.61  -45.11  S
  S2(g)           -60.90    -68.09   -7.19  S2
  Sanidine_high     2.42      3.24    0.82  KAlSi3O8
  Saponite-Ca       5.36     31.51   26.14  Ca.165Mg3Al.33Si3.67O10(OH)2
  Saponite-H        4.15     29.33   25.18  H.33Mg3Al.33Si3.67O10(OH)2
  Saponite-K        4.76     30.62   25.86  K.33Mg3Al.33Si3.67O10(OH)2
  Saponite-Mg       5.34     31.44   26.10  Mg3.165Al.33Si3.67O10(OH)2
  Saponite-Na       4.79     30.99   26.20  Na.33Mg3Al.33Si3.67O10(OH)2
  Schoepite        -1.81      3.03    4.83  UO3:2H2O
  Schoepite-dehy(.393)  -3.70      3.03    6.72  UO3:.393H2O
  Schoepite-dehy(.648)  -3.18      3.03    6.21  UO3:.648H2O
  Schoepite-dehy(.85)  -2.07      3.03    5.10  UO3:.85H2O
  Schoepite-dehy(.9)  -1.99      3.03    5.02  UO3:.9H2O
  Schoepite-dehy(1.0)  -2.08      3.03    5.10  UO3:H2O
  Scolecite         6.00     21.74   15.75  CaAl2Si3O10:3H2O
  Sepiolite         1.18     31.41   30.22  Mg4Si6O15(OH)2:6H2O
  Si              -92.20     56.66  148.86  Si
  Si(g)          -163.28     56.66  219.94  Si
  Siderite         -0.52     -0.74   -0.22  FeCO3
  Sillimanite      -1.10     15.14   16.24  Al2SiO5
  SiO2(am)         -0.55     -3.29   -2.74  SiO2
  Sklodowskite     -1.54     12.26   13.79  Mg(H3O)2(UO2)2(SiO4)2:4H2O
  Smectite-high-Fe-Mg   4.81     22.08   17.27  Ca.025Na.1K.2Fe.5Fe.2Mg1.15Al1.25Si3.5H2O12
  Smectite-low-Fe-Mg   5.09     15.98   10.89  Ca.02Na.15K.2Fe.29Fe.16Mg.9Al1.25Si3.75H2O12
  SO2(g)          -27.97    -27.79    0.18  SO2
  Soddyite          2.37      2.76    0.39  (UO2)2SiO4:2H2O
  Spinel           -6.38     31.23   37.61  Al2MgO4
  Starkeyite       -6.47     -7.47   -1.00  MgSO4:4H2O
  Stilbite         10.97     11.78    0.81  Ca1.019Na.136K.006Al2.18Si6.82O18:7.33H2O
  Sylvite          -9.19     -8.36    0.83  KCl
  Syngenite       -11.94    -19.54   -7.60  K2Ca(SO4)2:H2O
  Tachyhydrite    -51.95    -34.81   17.14  Mg2CaCl6:12H2O
  Talc              4.21     25.20   20.99  Mg3Si4O10(OH)2
  Thenardite       -9.86    -10.22   -0.36  Na2SO4
  Thermonatrite   -11.72     -0.78   10.94  Na2CO3:H2O
  Tobermorite-11A -19.21     46.18   65.39  Ca5Si6H11O22.5
  Tobermorite-14A -17.43     46.18   63.61  Ca5Si6H21O27.5
  Tobermorite-9A  -22.67     46.18   68.86  Ca5Si6H6O20
  Tremolite         3.06     63.99   60.93  Ca2Mg5Si8O22(OH)2
  Tridymite         0.55     -3.29   -3.84  SiO2
  Troilite        -24.70    -28.55   -3.84  FeS
  Trona-K         -20.43     -8.84   11.59  K2NaH(CO3)2:2H2O
  U              -119.81     92.96  212.77  U
  U(g)           -205.36     92.96  298.32  U
  UCl2(g)        -145.29     38.45  183.74  UCl2
  UCl6           -128.05    -70.55   57.50  UCl6
  UCl6(g)        -133.92    -70.55   63.37  UCl6
  UO(g)          -148.67     62.98  211.65  UO
  UO2(g)          -92.59     33.00  125.60  UO2
  UO2(OH)2(beta)   -1.92      3.03    4.95  UO2(OH)2
  UO2Cl2          -33.61    -21.50   12.11  UO2Cl2
  UO2Cl2(g)       -69.43    -21.50   47.93  UO2Cl2
  UO2Cl2:3H2O     -27.11    -21.50    5.61  UO2Cl2:3H2O
  UO2Cl2:H2O      -29.78    -21.50    8.28  UO2Cl2:H2O
  UO2ClOH:2H2O    -11.54     -9.24    2.30  UO2ClOH:2H2O
  UO2CO3           -3.67     -7.80   -4.13  UO2CO3
  UO2SO3          -17.89    -33.88  -15.99  UO2SO3
  UO2SO4          -19.17    -17.24    1.93  UO2SO4
  UO2SO4:2.5H2O   -15.74    -17.24   -1.50  UO2SO4:2.5H2O
  UO2SO4:3.5H2O   -15.75    -17.24   -1.49  UO2SO4:3.5H2O
  UO2SO4:3H2O     -15.83    -17.24   -1.41  UO2SO4:3H2O
  UO2SO4:H2O      -11.17    -17.24   -6.07  UO2SO4:H2O
  UO3(alpha)       -5.61      3.03    8.64  UO3
  UO3(beta)        -5.29      3.03    8.31  UO3
  UO3(g)          -67.92      3.03   70.95  UO3
  UO3(gamma)       -4.68      3.03    7.71  UO3
  UO3:.9H2O(alpha)  -1.99      3.03    5.02  UO3:.9H2O
  UO3:2H2O         -1.81      3.03    4.84  UO3:2H2O
  Uranophane       -4.63     12.65   17.29  Ca(UO2)2(SiO3)2(OH)2
  US3             -96.19   -112.88  -16.69  US3
  Wairakite         0.53     18.45   17.92  CaAl2Si4O10(OH)4
  Weeksite        -21.29     -5.91   15.38  K2(UO2)2(Si2O5)3:4H2O
  Wollastonite     -3.83      9.90   13.72  CaSiO3
  Wustite          -3.54      8.86   12.40  Fe.947O
  Xonotlite       -32.37     59.37   91.74  Ca6Si6O17(OH)2
  Zoisite           1.01     44.15   43.14  Ca2Al3(SiO4)3OH

**For a gas, SI = log10(fugacity). Fugacity = pressure * phi / 1 atm.
  For ideal gases, phi = 1.

------------------
End of simulation.
------------------

------------------------------------
Reading input data for simulation 5.
------------------------------------

	PHASES 
	     Fix_H+ 
	     H+ = H+ 
	     log_k  0.0 		#pseudo-
	END 
------------------
End of simulation.
------------------

------------------------------------
Reading input data for simulation 6.
------------------------------------

	USE SURFACE 1
	USE SOLUTION 1
	EQUILIBRIUM_PHASES 1
		Fix_H+ -8.2 NaOH 11.0 			
	END
-----------------------------------------
Beginning of batch-reaction calculations.
-----------------------------------------

Reaction step 1.

Using solution 1.	SGW2
Using surface 1.	
Using pure phase assemblage 1.	

-------------------------------Phase assemblage--------------------------------

                                                      Moles in assemblage
Phase               SI  log IAP  log K(T, P)   Initial       Final       Delta

Fix_H+           -8.20    -8.20      0.00
	 NaOH               is reactant       1.100e+01   1.100e+01  -7.241e-08

------------------------------Surface composition------------------------------

Diffuse Double Layer Surface-Complexation Model

Surf          
	 -3.331e-08  Surface charge, eq
	 -7.347e-04  sigma, C/m²
	 -4.835e-03  psi, V
	  1.882e-01  -F*psi/RT
	  1.207e+00  exp(-F*psi/RT)
	  3.500e-01  specific area, m²/g
	  4.375e+00  m² for   1.250e+01 g


Surf_         
	  1.678e-05  moles
	                                   Mole                     Log
	Species               Moles    Fraction    Molality    Molality

	Surf_OH           1.285e-05       0.766   1.285e-05      -4.891
	Surf_O-           1.982e-06       0.118   1.982e-06      -5.703
	Surf_OH2+         1.908e-06       0.114   1.908e-06      -5.719
	Surf_OUO2+        4.071e-08       0.002   4.071e-08      -7.390

-----------------------------Solution composition------------------------------

	Elements           Molality       Moles

	Al                3.707e-06   3.707e-06
	C                 2.650e-03   2.650e-03
	Ca                8.636e-04   8.636e-04
	Cl                9.311e-05   9.311e-05
	Fe                1.791e-06   1.791e-06
	K                 5.373e-05   5.373e-05
	Mg                3.416e-04   3.416e-04
	Na                7.180e-04   7.180e-04
	S                 2.044e-04   2.044e-04
	Si                5.195e-04   5.195e-04
	U                 4.162e-06   4.162e-06

----------------------------Description of solution----------------------------

                                       pH  =   8.200      Charge balance
                                       pe  =  -0.605      Adjusted to redox equilibrium
                        Activity of water  =   1.000
                 Ionic strength (mol/kgw)  =   4.409e-03
                       Mass of water (kg)  =   1.000e+00
                 Total alkalinity (eq/kg)  =   2.703e-03
                       Total CO2 (mol/kg)  =   2.650e-03
                         Temperature (°C)  =  25.00
                  Electrical balance (eq)  =   3.331e-08
 Percent error, 100*(Cat-|An|)/(Cat+|An|)  =   0.00
                               Iterations  =   8
                                  Total H  = 1.110532e+02
                                  Total O  = 5.553512e+01

----------------------------Distribution of species----------------------------

                                               Log       Log       Log    mole V
   Species          Molality    Activity  Molality  Activity     Gamma    cm³/mol

   OH-             1.641e-06   1.527e-06    -5.785    -5.816    -0.031     (0)  
   H+              6.733e-09   6.310e-09    -8.172    -8.200    -0.028      0.00
   H2O             5.553e+01   9.999e-01     1.744    -0.000     0.000     (0)  
Al            3.707e-06
   AlO2-           3.644e-06   3.393e-06    -5.438    -5.469    -0.031     (0)  
   HAlO2           6.249e-08   6.249e-08    -7.204    -7.204     0.000     (0)  
   NaAlO2          4.307e-10   4.307e-10    -9.366    -9.366     0.000     (0)  
   Al(OH)2+        2.910e-10   2.709e-10    -9.536    -9.567    -0.031     (0)  
   AlOH+2          9.784e-13   7.362e-13   -12.009   -12.133    -0.123     (0)  
   Al+3            7.464e-16   4.147e-16   -15.127   -15.382    -0.255     (0)  
   AlSO4+          6.239e-17   5.808e-17   -16.205   -16.236    -0.031     (0)  
   Al(SO4)2-       6.629e-19   6.171e-19   -18.179   -18.210    -0.031     (0)  
   Al2(OH)2+4      2.692e-22   8.814e-23   -21.570   -22.055    -0.485     (0)  
   Al3(OH)4+5      3.336e-27   5.926e-28   -26.477   -27.227    -0.750     (0)  
   Al13O4(OH)24+7   1.481e-35   5.005e-37   -34.830   -36.301    -1.471     (0)  
C(-2)         0.000e+00
   C2H4            0.000e+00   0.000e+00  -109.230  -109.230     0.000     (0)  
C(-3)         0.000e+00
   C2H6            0.000e+00   0.000e+00   -77.087   -77.087     0.000     (0)  
C(-4)         0.000e+00
   CH4             0.000e+00   0.000e+00   -43.690   -43.690     0.000     (0)  
C(2)          2.019e-25
   CO              2.019e-25   2.019e-25   -24.695   -24.695     0.000     (0)  
C(4)          2.650e-03
   HCO3-           2.526e-03   2.351e-03    -2.598    -2.629    -0.031     (0)  
   CO2             3.438e-05   3.442e-05    -4.464    -4.463     0.000     (0)  
   CaCO3           2.353e-05   2.353e-05    -4.628    -4.628     0.000     (0)  
   CO3-2           2.197e-05   1.653e-05    -4.658    -4.782    -0.123     (0)  
   CaHCO3+         1.838e-05   1.711e-05    -4.736    -4.767    -0.031     (0)  
   MgHCO3+         7.219e-06   6.721e-06    -5.142    -5.173    -0.031     (0)  
   MgCO3           4.304e-06   4.304e-06    -5.366    -5.366     0.000     (0)  
   UO2(CO3)3-4     2.579e-06   8.165e-07    -5.589    -6.088    -0.500     (0)  
   NaHCO3          2.238e-06   2.238e-06    -5.650    -5.650     0.000     (0)  
   UO2(CO3)2-2     1.463e-06   1.098e-06    -5.835    -5.960    -0.125     (0)  
   FeHCO3+         6.317e-07   5.882e-07    -6.199    -6.231    -0.031     (0)  
   FeCO3           4.474e-07   4.474e-07    -6.349    -6.349     0.000     (0)  
   NaCO3-          4.135e-08   3.850e-08    -7.384    -7.415    -0.031     (0)  
   (UO2)2CO3(OH)3-   1.650e-08   1.536e-08    -7.782    -7.814    -0.031     (0)  
   UO2CO3          3.451e-09   3.451e-09    -8.462    -8.462     0.000     (0)  
   (UO2)3(CO3)6-6   2.505e-14   1.883e-15   -13.601   -14.725    -1.124     (0)  
   FeCO3+          1.164e-15   1.084e-15   -14.934   -14.965    -0.031     (0)  
   UO2(CO3)3-5     3.761e-18   6.233e-19   -17.425   -18.205    -0.781     (0)  
   U(CO3)4-4       4.080e-20   1.292e-20   -19.389   -19.889    -0.500     (0)  
   (UO2)3(OH)5CO2+   2.754e-20   2.564e-20   -19.560   -19.591    -0.031     (0)  
   (UO2)3O(OH)2(HCO3)+   2.221e-20   2.068e-20   -19.653   -19.684    -0.031     (0)  
   U(CO3)5-6       2.348e-25   1.765e-26   -24.629   -25.753    -1.124     (0)  
   (UO2)11(CO3)6(OH)12-2   0.000e+00   0.000e+00   -40.973   -41.097    -0.125     (0)  
Ca            8.636e-04
   Ca+2            8.094e-04   6.141e-04    -3.092    -3.212    -0.120     (0)  
   CaCO3           2.353e-05   2.353e-05    -4.628    -4.628     0.000     (0)  
   CaHCO3+         1.838e-05   1.711e-05    -4.736    -4.767    -0.031     (0)  
   CaSO4           1.228e-05   1.228e-05    -4.911    -4.911     0.000     (0)  
   CaOH+           1.476e-08   1.375e-08    -7.831    -7.862    -0.031     (0)  
   CaCl+           1.210e-08   1.126e-08    -7.917    -7.948    -0.031     (0)  
   CaCl2           1.146e-12   1.146e-12   -11.941   -11.941     0.000     (0)  
Cl(-1)        9.311e-05
   Cl-             9.307e-05   8.652e-05    -4.031    -4.063    -0.032     (0)  
   MgCl+           1.786e-08   1.662e-08    -7.748    -7.779    -0.031     (0)  
   CaCl+           1.210e-08   1.126e-08    -7.917    -7.948    -0.031     (0)  
   NaCl            1.012e-08   1.012e-08    -7.995    -7.995     0.000     (0)  
   KCl             1.450e-10   1.450e-10    -9.839    -9.839     0.000     (0)  
   FeCl+           3.227e-11   3.004e-11   -10.491   -10.522    -0.031     (0)  
   CaCl2           1.146e-12   1.146e-12   -11.941   -11.941     0.000     (0)  
   HCl             1.226e-13   1.226e-13   -12.911   -12.911     0.000     (0)  
   FeCl2           1.395e-17   1.395e-17   -16.856   -16.856     0.000     (0)  
   UO2Cl+          5.751e-18   5.354e-18   -17.240   -17.271    -0.031     (0)  
   UO2Cl2          2.371e-23   2.371e-23   -22.625   -22.625     0.000     (0)  
   FeCl4-2         4.021e-25   3.017e-25   -24.396   -24.520    -0.125     (0)  
   FeCl+2          2.174e-25   1.636e-25   -24.663   -24.786    -0.123     (0)  
   FeCl2+          1.231e-26   1.146e-26   -25.910   -25.941    -0.031     (0)  
   FeCl4-          1.108e-37   1.031e-37   -36.956   -36.987    -0.031     (0)  
   UCl+3           1.021e-38   5.417e-39   -37.991   -38.266    -0.275     (0)  
Cl(1)         0.000e+00
   ClO-            0.000e+00   0.000e+00   -46.950   -46.981    -0.031     (0)  
   HClO            0.000e+00   0.000e+00   -47.612   -47.612     0.000     (0)  
Cl(3)         0.000e+00
   ClO2-           0.000e+00   0.000e+00   -82.763   -82.794    -0.031     (0)  
   HClO2           0.000e+00   0.000e+00   -87.825   -87.825     0.000     (0)  
Cl(5)         0.000e+00
   ClO3-           0.000e+00   0.000e+00  -104.724  -104.755    -0.031     (0)  
   UO2ClO3+        0.000e+00   0.000e+00  -117.599  -117.630    -0.031     (0)  
Cl(7)         0.000e+00
   ClO4-           0.000e+00   0.000e+00  -130.986  -131.018    -0.031     (0)  
Fe(2)         1.743e-06
   FeHCO3+         6.317e-07   5.882e-07    -6.199    -6.231    -0.031     (0)  
   Fe+2            6.282e-07   4.766e-07    -6.202    -6.322    -0.120     (0)  
   FeCO3           4.474e-07   4.474e-07    -6.349    -6.349     0.000     (0)  
   FeOH+           2.565e-08   2.388e-08    -7.591    -7.622    -0.031     (0)  
   FeSO4           1.034e-08   1.034e-08    -7.986    -7.986     0.000     (0)  
   FeCl+           3.227e-11   3.004e-11   -10.491   -10.522    -0.031     (0)  
   Fe(OH)2         3.007e-11   3.007e-11   -10.522   -10.522     0.000     (0)  
   Fe(OH)3-        2.037e-13   1.897e-13   -12.691   -12.722    -0.031     (0)  
   FeCl2           1.395e-17   1.395e-17   -16.856   -16.856     0.000     (0)  
   Fe(OH)4-2       4.006e-20   3.006e-20   -19.397   -19.522    -0.125     (0)  
   FeCl4-2         4.021e-25   3.017e-25   -24.396   -24.520    -0.125     (0)  
Fe(3)         4.775e-08
   Fe(OH)3         4.517e-08   4.517e-08    -7.345    -7.345     0.000     (0)  
   Fe(OH)4-        1.931e-09   1.798e-09    -8.714    -8.745    -0.031     (0)  
   Fe(OH)2+        6.545e-10   6.093e-10    -9.184    -9.215    -0.031     (0)  
   FeOH+2          1.543e-14   1.161e-14   -13.812   -13.935    -0.123     (0)  
   FeCO3+          1.164e-15   1.084e-15   -14.934   -14.965    -0.031     (0)  
   Fe+3            2.043e-20   1.135e-20   -19.690   -19.945    -0.255     (0)  
   FeSO4+          1.614e-22   1.503e-22   -21.792   -21.823    -0.031     (0)  
   Fe(SO4)2-       3.735e-25   3.478e-25   -24.428   -24.459    -0.031     (0)  
   FeCl+2          2.174e-25   1.636e-25   -24.663   -24.786    -0.123     (0)  
   FeCl2+          1.231e-26   1.146e-26   -25.910   -25.941    -0.031     (0)  
   Fe2(OH)2+4      1.108e-26   3.629e-27   -25.955   -26.440    -0.485     (0)  
   Fe3(OH)4+5      2.601e-33   4.620e-34   -32.585   -33.335    -0.750     (0)  
   FeCl4-          1.108e-37   1.031e-37   -36.956   -36.987    -0.031     (0)  
H(0)          1.023e-18
   H2              5.117e-19   5.122e-19   -18.291   -18.291     0.000     (0)  
K             5.373e-05
   K+              5.367e-05   4.989e-05    -4.270    -4.302    -0.032     (0)  
   KSO4-           5.920e-08   5.512e-08    -7.228    -7.259    -0.031     (0)  
   KCl             1.450e-10   1.450e-10    -9.839    -9.839     0.000     (0)  
   KOH             2.741e-11   2.741e-11   -10.562   -10.562     0.000     (0)  
   KHSO4           3.068e-16   3.068e-16   -15.513   -15.513     0.000     (0)  
Mg            3.416e-04
   Mg+2            3.211e-04   2.461e-04    -3.493    -3.609    -0.115     (0)  
   MgSO4           8.996e-06   8.996e-06    -5.046    -5.046     0.000     (0)  
   MgHCO3+         7.219e-06   6.721e-06    -5.142    -5.173    -0.031     (0)  
   MgCO3           4.304e-06   4.304e-06    -5.366    -5.366     0.000     (0)  
   MgCl+           1.786e-08   1.662e-08    -7.748    -7.779    -0.031     (0)  
   Mg4(OH)4+4      1.257e-21   4.115e-22   -20.901   -21.386    -0.485     (0)  
Na            7.180e-04
   Na+             7.148e-04   6.654e-04    -3.146    -3.177    -0.031     (0)  
   NaHCO3          2.238e-06   2.238e-06    -5.650    -5.650     0.000     (0)  
   NaSO4-          6.464e-07   6.018e-07    -6.190    -6.221    -0.031     (0)  
   NaHSiO3         2.890e-07   2.890e-07    -6.539    -6.539     0.000     (0)  
   NaCO3-          4.135e-08   3.850e-08    -7.384    -7.415    -0.031     (0)  
   NaCl            1.012e-08   1.012e-08    -7.995    -7.995     0.000     (0)  
   NaAlO2          4.307e-10   4.307e-10    -9.366    -9.366     0.000     (0)  
   NaOH            1.753e-10   1.753e-10    -9.756    -9.756     0.000     (0)  
O(0)          0.000e+00
   O2              0.000e+00   0.000e+00   -55.615   -55.615     0.000     (0)  
S(-2)         8.222e-40
   HS-             8.222e-40   7.649e-40   -39.085   -39.116    -0.031     (0)  
   H2S             0.000e+00   0.000e+00   -40.307   -40.307     0.000     (0)  
   S-2             0.000e+00   0.000e+00   -43.720   -43.842    -0.122     (0)  
   S2-2            0.000e+00   0.000e+00   -72.658   -72.783    -0.125     (0)  
   S3-2            0.000e+00   0.000e+00  -101.639  -101.764    -0.125     (0)  
   S4-2            0.000e+00   0.000e+00  -130.848  -130.973    -0.125     (0)  
   S5-2            0.000e+00   0.000e+00  -160.273  -160.398    -0.125     (0)  
S(2)          0.000e+00
   S2O3-2          0.000e+00   0.000e+00   -46.246   -46.371    -0.125     (0)  
   HS2O3-          0.000e+00   0.000e+00   -53.526   -53.557    -0.031     (0)  
   UO2S2O3         0.000e+00   0.000e+00   -57.528   -57.528     0.000     (0)  
S(3)          0.000e+00
   S2O4-2          0.000e+00   0.000e+00   -58.985   -59.107    -0.122     (0)  
S(4)          3.059e-23
   SO3-2           2.815e-23   2.118e-23   -22.551   -22.674    -0.123     (0)  
   HSO3-           2.447e-24   2.278e-24   -23.611   -23.642    -0.031     (0)  
   UO2SO3          4.991e-30   4.991e-30   -29.302   -29.302     0.000     (0)  
   H2SO3           1.378e-30   1.378e-30   -29.861   -29.861     0.000     (0)  
   SO2             1.094e-30   1.094e-30   -29.961   -29.961     0.000     (0)  
   S2O6-2          0.000e+00   0.000e+00   -47.564   -47.689    -0.125     (0)  
   UO2(SO3)2-2     0.000e+00   0.000e+00   -50.694   -50.819    -0.125     (0)  
   S3O6-2          0.000e+00   0.000e+00   -79.028   -79.153    -0.125     (0)  
   S4O6-2          0.000e+00   0.000e+00   -94.587   -94.712    -0.125     (0)  
   S5O6-2          0.000e+00   0.000e+00  -139.025  -139.150    -0.125     (0)  
S(5)          0.000e+00
   S2O5-2          0.000e+00   0.000e+00   -51.990   -52.115    -0.125     (0)  
S(6)          2.044e-04
   SO4-2           1.824e-04   1.369e-04    -3.739    -3.864    -0.125     (0)  
   CaSO4           1.228e-05   1.228e-05    -4.911    -4.911     0.000     (0)  
   MgSO4           8.996e-06   8.996e-06    -5.046    -5.046     0.000     (0)  
   NaSO4-          6.464e-07   6.018e-07    -6.190    -6.221    -0.031     (0)  
   KSO4-           5.920e-08   5.512e-08    -7.228    -7.259    -0.031     (0)  
   FeSO4           1.034e-08   1.034e-08    -7.986    -7.986     0.000     (0)  
   HSO4-           9.370e-11   8.724e-11   -10.028   -10.059    -0.031     (0)  
   UO2SO4          6.922e-15   6.922e-15   -14.160   -14.160     0.000     (0)  
   KHSO4           3.068e-16   3.068e-16   -15.513   -15.513     0.000     (0)  
   AlSO4+          6.239e-17   5.808e-17   -16.205   -16.236    -0.031     (0)  
   UO2(SO4)2-2     1.119e-17   8.396e-18   -16.951   -17.076    -0.125     (0)  
   Al(SO4)2-       6.629e-19   6.171e-19   -18.179   -18.210    -0.031     (0)  
   H2SO4           5.193e-22   5.193e-22   -21.285   -21.285     0.000     (0)  
   FeSO4+          1.614e-22   1.503e-22   -21.792   -21.823    -0.031     (0)  
   Fe(SO4)2-       3.735e-25   3.478e-25   -24.428   -24.459    -0.031     (0)  
   USO4+2          7.476e-34   5.626e-34   -33.126   -33.250    -0.123     (0)  
   U(SO4)2         5.321e-34   5.321e-34   -33.274   -33.274     0.000     (0)  
S(7)          0.000e+00
   S2O8-2          0.000e+00   0.000e+00   -74.265   -74.390    -0.125     (0)  
S(8)          0.000e+00
   HSO5-           0.000e+00   0.000e+00   -57.101   -57.132    -0.031     (0)  
Si            5.195e-04
   SiO2            5.093e-04   5.093e-04    -3.293    -3.293     0.000     (0)  
   HSiO3-          9.903e-06   9.219e-06    -5.004    -5.035    -0.031     (0)  
   NaHSiO3         2.890e-07   2.890e-07    -6.539    -6.539     0.000     (0)  
   H2SiO4-2        1.869e-10   1.403e-10    -9.728    -9.853    -0.125     (0)  
   H6(H2SiO4)4-2   5.157e-11   3.869e-11   -10.288   -10.412    -0.125     (0)  
   H4(H2SiO4)4-4   1.539e-16   4.871e-17   -15.813   -16.312    -0.500     (0)  
U(3)          0.000e+00
   U+3             0.000e+00   0.000e+00   -44.390   -44.666    -0.275     (0)  
U(4)          2.186e-08
   U(OH)4          2.186e-08   2.186e-08    -7.660    -7.660     0.000     (0)  
   U(CO3)4-4       4.080e-20   1.292e-20   -19.389   -19.889    -0.500     (0)  
   U(CO3)5-6       2.348e-25   1.765e-26   -24.629   -25.753    -1.124     (0)  
   UOH+3           1.020e-28   5.411e-29   -27.991   -28.267    -0.275     (0)  
   USO4+2          7.476e-34   5.626e-34   -33.126   -33.250    -0.123     (0)  
   U(SO4)2         5.321e-34   5.321e-34   -33.274   -33.274     0.000     (0)  
   U+4             3.665e-36   1.200e-36   -35.436   -35.921    -0.485     (0)  
   UCl+3           1.021e-38   5.417e-39   -37.991   -38.266    -0.275     (0)  
U(5)          5.443e-12
   UO2+            5.443e-12   5.067e-12   -11.264   -11.295    -0.031     (0)  
   UO2(CO3)3-5     3.761e-18   6.233e-19   -17.425   -18.205    -0.781     (0)  
U(6)          4.140e-06
   UO2(CO3)3-4     2.579e-06   8.165e-07    -5.589    -6.088    -0.500     (0)  
   UO2(CO3)2-2     1.463e-06   1.098e-06    -5.835    -5.960    -0.125     (0)  
   UO2(OH)2        5.063e-08   5.063e-08    -7.296    -7.296     0.000     (0)  
   (UO2)2CO3(OH)3-   1.650e-08   1.536e-08    -7.782    -7.814    -0.031     (0)  
   UO2(OH)3-       1.067e-08   9.935e-09    -7.972    -8.003    -0.031     (0)  
   UO2CO3          3.451e-09   3.451e-09    -8.462    -8.462     0.000     (0)  
   UO2OH+          4.383e-11   4.080e-11   -10.358   -10.389    -0.031     (0)  
   UO2+2           5.528e-14   4.160e-14   -13.257   -13.381    -0.123     (0)  
   UO2(OH)4-2      3.270e-14   2.454e-14   -13.485   -13.610    -0.125     (0)  
   (UO2)3(CO3)6-6   2.505e-14   1.883e-15   -13.601   -14.725    -1.124     (0)  
   (UO2)3(OH)7-    1.727e-14   1.607e-14   -13.763   -13.794    -0.031     (0)  
   UO2SO4          6.922e-15   6.922e-15   -14.160   -14.160     0.000     (0)  
   (UO2)3(OH)5+    1.969e-15   1.833e-15   -14.706   -14.737    -0.031     (0)  
   (UO2)2(OH)2+2   1.343e-16   1.010e-16   -15.872   -15.996    -0.123     (0)  
   UO2(SO4)2-2     1.119e-17   8.396e-18   -16.951   -17.076    -0.125     (0)  
   UO2Cl+          5.751e-18   5.354e-18   -17.240   -17.271    -0.031     (0)  
   (UO2)4(OH)7+    9.042e-19   8.418e-19   -18.044   -18.075    -0.031     (0)  
   (UO2)3(OH)4+2   7.105e-20   5.346e-20   -19.148   -19.272    -0.123     (0)  
   (UO2)3(OH)5CO2+   2.754e-20   2.564e-20   -19.560   -19.591    -0.031     (0)  
   (UO2)3O(OH)2(HCO3)+   2.221e-20   2.068e-20   -19.653   -19.684    -0.031     (0)  
   (UO2)2OH+3      1.015e-21   5.381e-22   -20.994   -21.269    -0.275     (0)  
   UO2Cl2          2.371e-23   2.371e-23   -22.625   -22.625     0.000     (0)  
   UO2SO3          4.991e-30   4.991e-30   -29.302   -29.302     0.000     (0)  
   (UO2)11(CO3)6(OH)12-2   0.000e+00   0.000e+00   -40.973   -41.097    -0.125     (0)  
   UO2(SO3)2-2     0.000e+00   0.000e+00   -50.694   -50.819    -0.125     (0)  
   UO2S2O3         0.000e+00   0.000e+00   -57.528   -57.528     0.000     (0)  
   UO2ClO3+        0.000e+00   0.000e+00  -117.599  -117.630    -0.031     (0)  

------------------------------Saturation indices-------------------------------

  Phase               SI** log IAP   log K(298 K,   1 atm)

  (UO2)2Cl3       -49.54    -36.86   12.68  (UO2)2Cl3
  Afwillite       -26.98     32.98   59.96  Ca3Si2O4(OH)6
  Akermanite      -12.65     32.58   45.23  Ca2MgSi2O7
  Al              -98.98     50.93  149.91  Al
  Al(g)          -149.69     50.93  200.62  Al
  Al2(SO4)3       -61.25    -42.36   18.90  Al2(SO4)3
  Al2(SO4)3:6H2O  -43.91    -42.36    1.56  Al2(SO4)3:6H2O
  Albite            1.70      4.36    2.66  NaAlSi3O8
  Albite_high       0.39      4.36    3.98  NaAlSi3O8
  Albite_low        1.70      4.36    2.66  NaAlSi3O8
  Alum-K          -22.44    -27.41   -4.97  KAl(SO4)2:12H2O
  Alunite          -8.51     -8.98   -0.47  KAl3(OH)6(SO4)2
  Amesite-14A       6.17     81.45   75.27  Mg4Al4Si2O10(OH)8
  Analcime          0.89      6.95    6.06  Na.96Al.96Si2.04O6:H2O
  Analcime-dehy    -5.47      6.95   12.42  Na.96Al.96Si2.04O6
  Andalusite       -0.74     15.14   15.88  Al2SiO5
  Andradite         5.81     39.00   33.19  Ca3Fe2(SiO4)3
  Anhydrite        -2.73     -7.08   -4.35  CaSO4
  Annite            4.14     33.47   29.33  KFe3AlSi3O10(OH)2
  Anorthite        -1.44     25.04   26.48  CaAl2(SiO4)2
  Antarcticite    -15.43    -11.34    4.09  CaCl2:6H2O
  Anthophyllite    -3.28     63.19   66.48  Mg7Si8O22(OH)2
  Antigorite       26.38    502.01  475.63  Mg48Si34O85(OH)62
  Aphthitalite    -19.92    -23.81   -3.89  NaK3(SO4)2
  Aragonite         0.39      2.36    1.97  CaCO3
  Arcanite        -10.62    -12.47   -1.84  K2SO4
  Artinite         -4.87     14.75   19.63  Mg2CO3(OH)2:3H2O
  Bassanite        -3.37     -7.08   -3.71  CaSO4:0.5H2O
  Beidellite-Ca     6.12     11.57    5.44  Ca.165Al2.33Si3.67O10(OH)2
  Beidellite-H      4.90      9.39    4.49  H.33Al2.33Si3.67O10(OH)2
  Beidellite-K      5.52     10.68    5.16  K.33Al2.33Si3.67O10(OH)2
  Beidellite-Mg     6.10     11.50    5.41  Mg.165Al2.33Si3.67O10(OH)2
  Beidellite-Na     5.55     11.05    5.50  Na.33Al2.33Si3.67O10(OH)2
  Bischofite      -16.13    -11.73    4.39  MgCl2:6H2O
  Bloedite        -15.21    -17.69   -2.48  Na2Mg(SO4)2:4H2O
  Boehmite          1.67      9.22    7.55  AlO2H
  Boltwoodite     -11.26      3.62   14.89  K(H3O)(UO2)SiO4
  Boltwoodite-Na  -10.17      4.41   14.58  Na.7K.3(H3O)(UO2)SiO4:H2O
  Brucite          -3.49     12.79   16.28  Mg(OH)2
  Burkeite        -30.70    -21.22    9.49  Na6CO3(SO4)2
  C               -19.36     44.79   64.15  C
  C(g)           -136.98     44.79  181.77  C
  Ca              -98.84     41.00  139.83  Ca
  Ca(g)          -124.08     41.00  165.07  Ca
  Ca-Al_Pyroxene   -7.57     28.33   35.90  CaAl2SiO6
  Ca2Al2O5:8H2O   -14.76     44.81   59.57  Ca2Al2O5:8H2O
  Ca2Cl2(OH)2:H2O -24.44      1.85   26.29  Ca2Cl2(OH)2:H2O
  Ca3Al2O6        -55.03     58.00  113.03  Ca3Al2O6
  Ca4Al2Fe2O10    -59.98     80.50  140.48  Ca4Al2Fe2O10
  Ca4Al2O7:13H2O  -36.07     71.19  107.25  Ca4Al2O7:13H2O
  Ca4Al2O7:19H2O  -32.49     71.19  103.68  Ca4Al2O7:19H2O
  Ca4Cl2(OH)6:13H2O -40.10     28.23   68.33  Ca4Cl2(OH)6:13H2O
  CaAl2O4         -15.28     31.62   46.91  CaAl2O4
  CaAl2O4:10H2O    -6.37     31.62   37.99  CaAl2O4:10H2O
  CaAl4O7         -18.53     50.06   68.59  CaAl4O7
  Calcite           0.53      2.36    1.82  CaCO3
  Carnallite      -24.37    -20.10    4.27  KMgCl3:6H2O
  CaSO4:0.5H2O(beta)  -3.54     -7.08   -3.54  CaSO4:0.5H2O
  CaUO4             0.27     16.21   15.94  CaUO4
  Celadonite        5.42     12.73    7.31  KMgAlSi4O10(OH)2
  CH4(g)          -40.85    -43.69   -2.84  CH4
  Chalcedony        0.46     -3.29   -3.76  SiO2
  Chamosite-7A      2.54     35.30   32.76  Fe2Al2SiO5(OH)4
  Chloromagnesite -33.55    -11.73   21.82  MgCl2
  Chrysotile        0.76     31.79   31.03  Mg3Si2O5(OH)4
  Cl2(g)          -55.33    -52.33    2.99  Cl2
  Clinochlore-14A   5.46     72.51   67.05  Mg5Al2Si3O10(OH)8
  Clinochlore-7A    2.09     72.51   70.42  Mg5Al2Si3O10(OH)8
  Clinoptilolite-Ca  14.40      6.88   -7.52  Ca1.7335Al3.45Fe.017Si14.533O36:10.922H2O
  Clinoptilolite-dehy-Ca -21.26      6.88   28.14  Ca1.7335Al3.45Fe.017Si14.533O36
  Clinoptilolite-dehy-K -26.67     -2.46   24.20  K3.467Al3.45Fe.017Si14.533O36
  Clinoptilolite-dehy-Na -26.57      1.44   28.01  Na3.467Al3.45Fe.017Si14.533O36
  Clinoptilolite-hy-Ca  14.40      6.88   -7.52  Ca1.7335Al3.45Fe.017Si14.533O36:11.645H2O
  Clinoptilolite-hy-K   8.99     -2.46  -11.45  K3.467Al3.45Fe.017Si14.533O36:7.499H2O
  Clinoptilolite-hy-Na   9.08      1.44   -7.65  Na3.467Al3.45Fe.017Si14.533O36:10.877H2O
  Clinoptilolite-K   8.99     -2.46  -11.45  K3.467Al3.45Fe.017Si14.533O36:10.922H2O
  Clinoptilolite-Na   9.08      1.44   -7.64  Na3.467Al3.45Fe.017Si14.533O36:10.922H2O
  Clinozoisite      1.05     44.15   43.10  Ca2Al3Si3O12(OH)
  CO(g)           -21.70    -24.69   -3.00  CO
  CO2(g)           -3.00    -10.83   -7.83  CO2
  Coesite          -0.07     -3.29   -3.22  SiO2
  Coffinite         1.65     -6.41   -8.07  USiO4
  Cordierite_anhyd  -6.08     45.99   52.07  Mg2Al4Si5O18
  Cordierite_hydr  -3.60     45.99   49.59  Mg2Al4Si5O18:H2O
  Corundum          0.14     18.44   18.29  Al2O3
  Cristobalite(alpha)   0.18     -3.29   -3.48  SiO2
  Cristobalite(beta)  -0.26     -3.29   -3.03  SiO2
  Cronstedtite-7A  10.00     26.17   16.18  Fe2Fe2SiO5(OH)4
  Daphnite-14A      6.85     58.95   52.10  Fe5AlAlSi3O10(OH)8
  Daphnite-7A       3.47     58.95   55.48  Fe5AlAlSi3O10(OH)8
  Dawsonite        -0.93      3.41    4.34  NaAlCO3(OH)2
  Diaspore          2.07      9.22    7.15  AlHO2
  Dicalcium_silicate -14.04     23.08   37.13  Ca2SiO4
  Diopside         -1.49     19.39   20.89  CaMgSi2O6
  Dolomite          1.85      4.32    2.47  CaMg(CO3)2
  Dolomite-dis      0.31      4.32    4.01  CaMg(CO3)2
  Dolomite-ord      1.86      4.32    2.46  CaMg(CO3)2
  Enstatite        -1.79      9.50   11.29  MgSiO3
  Epidote           6.81     39.59   32.77  Ca2FeAl2Si3O12OH
  Epidote-ord       6.82     39.59   32.76  FeCa2Al2(OH)(SiO4)3
  Epsomite         -5.51     -7.47   -1.96  MgSO4:7H2O
  Ettringite      -25.69     36.77   62.46  Ca6Al2(SO4)3(OH)12:26H2O
  Fayalite         -2.20     16.86   19.06  Fe2SiO4
  Fe              -21.13     37.89   59.02  Fe
  Fe(OH)2          -3.82     10.08   13.89  Fe(OH)2
  Fe(OH)3          -0.98      4.65    5.64  Fe(OH)3
  Fe2(SO4)3       -54.53    -51.48    3.05  Fe2(SO4)3
  FeO              -3.44     10.08   13.52  FeO
  Ferrite-Ca        1.00     22.50   21.50  CaFe2O4
  Ferrite-Dicalcium -21.11     35.69   56.80  Ca2Fe2O5
  Ferrite-Mg        1.08     22.10   21.02  MgFe2O4
  Ferrosilite      -0.62      6.79    7.41  FeSiO3
  FeSO4           -12.79    -10.19    2.61  FeSO4
  Fix_H+           -8.20     -8.20    0.00  H+
  Forsterite       -5.52     22.29   27.81  Mg2SiO4
  Foshagite       -22.93     42.87   65.80  Ca4Si3O9(OH)2:0.5H2O
  Gaylussite       -9.59      1.58   11.16  CaNa2(CO3)2:5H2O
  Gehlenite       -14.70     41.52   56.22  Ca2Al2SiO7
  Gibbsite          1.48      9.22    7.74  Al(OH)3
  Gismondine        8.36     50.07   41.72  Ca2Al4Si4O16:9H2O
  Glauberite      -11.82    -17.29   -5.47  Na2Ca(SO4)2
  Goethite          4.12      4.65    0.53  FeOOH
  Greenalite        1.07     23.65   22.58  Fe3Si2O5(OH)4
  Grossular        -3.66     48.12   51.78  Ca3Al2(SiO4)3
  Gypsum           -2.54     -7.08   -4.53  CaSO4:2H2O
  Gyrolite         -6.31     16.50   22.80  Ca2Si3O7(OH)2:1.5H2O
  H2(g)           -15.19    -18.29   -3.10  H2
  H2O(g)           -1.59     -0.00    1.59  H2O
  H2S(g)          -39.32    -47.32   -7.99  H2S
  Haiweeite         6.51     -0.53   -7.04  Ca(UO2)2(Si2O5)3:5H2O
  Halite           -8.80     -7.24    1.56  NaCl
  Hatrurite       -37.08     36.27   73.35  Ca3SiO5
  HCl(g)          -18.56    -12.26    6.30  HCl
  Hedenbergite     -2.85     16.68   19.53  CaFe(SiO3)2
  Hematite          9.23      9.31    0.08  Fe2O3
  Hercynite        -0.29     28.51   28.80  FeAl2O4
  Hexahydrite      -5.75     -7.47   -1.73  MgSO4:6H2O
  Hillebrandite   -13.69     23.08   36.77  Ca2SiO3(OH)2:0.17H2O
  Huntite          -1.97      8.25   10.22  CaMg3(CO3)4
  Hydromagnesite  -10.10     20.64   30.74  Mg5(CO3)4(OH)2:4H2O
  Hydrophilite    -23.08    -11.34   11.75  CaCl2
  Ice              -0.14     -0.00    0.14  H2O
  Illite            6.33     15.21    8.88  K0.6Mg0.25Al1.8Al0.5Si3.5O10(OH)2
  Jadeite          -0.65      7.65    8.31  NaAl(SiO3)2
  Jarosite        -13.25    -22.66   -9.41  KFe3(SO4)2(OH)6
  Jarosite-Na     -16.09    -21.54   -5.45  NaFe3(SO4)2(OH)6
  K               -53.17     17.80   70.98  K
  K(g)            -63.78     17.80   81.58  K
  K-Feldspar        3.62      3.24   -0.38  KAlSi3O8
  K2CO3:1.5H2O    -16.41     -3.03   13.38  K2CO3:1.5H2O
  K2O             -76.24      7.80   84.04  K2O
  K2UO4           -23.06     10.82   33.87  K2UO4
  K3H(SO4)2       -25.21    -28.83   -3.62  K3H(SO4)2
  K8H4(CO3)6:3H2O -61.50    -33.79   27.71  K8H4(CO3)6:3H2O
  Kainite         -15.53    -15.84   -0.31  KMgClSO4:3H2O
  KAl(SO4)2       -30.68    -27.41    3.27  KAl(SO4)2
  Kalicinite       -7.21     -6.93    0.28  KHCO3
  Kalsilite        -1.03      9.82   10.85  KAlSiO4
  Kaolinite         5.13     11.85    6.72  Al2Si2O5(OH)4
  Katoite         -20.94     58.00   78.94  Ca3Al2H12O12
  Kieserite        -7.21     -7.47   -0.27  MgSO4:H2O
  KMgCl3          -41.35    -20.10   21.25  KMgCl3
  KMgCl3:2H2O     -34.06    -20.10   13.96  KMgCl3:2H2O
  KNaCO3:6H2O     -12.17     -1.91   10.26  KNaCO3:6H2O
  Kyanite          -0.47     15.14   15.61  Al2SiO5
  Lansfordite      -2.88      1.96    4.84  MgCO3:5H2O
  Larnite         -15.34     23.08   38.42  Ca2SiO4
  Laumontite        4.94     18.45   13.51  CaAl2Si4O12:4H2O
  Lawrencite      -23.50    -14.45    9.05  FeCl2
  Lawsonite         2.93     25.04   22.11  CaAl2Si2O7(OH)2:H2O
  Leonite         -15.83    -19.94   -4.11  K2Mg(SO4)2:4H2O
  Lime            -19.38     13.19   32.57  CaO
  Magnesite        -0.31      1.96    2.27  MgCO3
  Magnetite         8.97     19.39   10.42  Fe3O4
  Margarite         2.55     43.47   40.93  CaAl4Si2O10(OH)2
  Maximum_Microcline   3.62      3.24   -0.38  KAlSi3O8
  Mayenite       -206.85    287.31  494.15  Ca12Al14O33
  Melanterite      -7.79    -10.19   -2.40  FeSO4:7H2O
  Mercallite      -14.93    -16.37   -1.44  KHSO4
  Merwinite       -22.64     45.77   68.41  MgCa3(SiO4)2
  Mesolite          7.00     20.49   13.49  Na.676Ca.657Al1.99Si3.01O10:2.647H2O
  Mg              -81.92     40.60  122.52  Mg
  Mg(g)          -101.65     40.60  142.25  Mg
  Mg1.25SO4(OH)0.5:0.5H2O  -9.47     -4.27    5.20  Mg1.25SO4(OH)0.5:0.5H2O
  Mg1.5SO4(OH)    -10.29     -1.08    9.21  Mg1.5SO4(OH)
  MgCl2:2H2O      -24.47    -11.73   12.73  MgCl2:2H2O
  MgCl2:4H2O      -19.04    -11.73    7.30  MgCl2:4H2O
  MgCl2:H2O       -27.81    -11.73   16.07  MgCl2:H2O
  MgOHCl          -15.36      0.53   15.89  MgOHCl
  MgSO4           -12.30     -7.47    4.83  MgSO4
  MgUO4            -7.18     15.81   22.99  MgUO4
  Minnesotaite      3.23     17.06   13.83  Fe3Si4O10(OH)2
  Mirabilite       -9.06    -10.22   -1.15  Na2SO4:10H2O
  Misenite        -99.59   -110.66  -11.08  K8H6(SO4)7
  Molysite        -45.60    -32.13   13.47  FeCl3
  Monohydrocalcite  -0.32      2.36    2.68  CaCO3:H2O
  Monticellite     -6.85     22.69   29.53  CaMgSiO4
  Montmor-Ca        6.27      8.62    2.34  Ca.165Mg.33Al1.67Si4O10(OH)2
  Montmor-K         5.74      7.73    1.99  K.33Mg.33Al1.67Si4O10(OH)2
  Montmor-Mg        6.32      8.55    2.23  Mg.495Al1.67Si4O10(OH)2
  Montmor-Na        5.77      8.10    2.33  Na.33Mg.33Al1.67Si4O10(OH)2
  Mordenite         2.99     -2.37   -5.36  Ca.2895Na.361Al.94Si5.06O12:3.468H2O
  Mordenite-dehy  -12.13     -2.37    9.77  Ca.2895Na.361Al.94Si5.06O12
  Muscovite         8.23     21.67   13.45  KAl3Si3O10(OH)2
  Na              -48.44     18.93   67.37  Na
  Na(g)           -61.93     18.93   80.86  Na
  Na2CO3          -11.94     -0.78   11.16  Na2CO3
  Na2CO3:7H2O     -10.72     -0.78    9.94  Na2CO3:7H2O
  Na2O            -57.37     10.05   67.42  Na2O
  Na2SiO3         -15.45      6.75   22.20  Na2SiO3
  Na2U2O7          -6.51     16.08   22.59  Na2U2O7
  Na2UO4(alpha)   -16.95     13.07   30.02  Na2UO4
  Na3H(SO4)2      -24.57    -25.46   -0.89  Na3H(SO4)2
  Na3UO4          -44.27     11.97   56.24  Na3UO4
  Na4Ca(SO4)3:2H2O -21.62    -27.51   -5.89  Na4Ca(SO4)3:2H2O
  Na4SiO4         -53.80     16.80   70.60  Na4SiO4
  Na4UO2(CO3)3    -13.41     -9.37    4.04  Na4UO2(CO3)3
  Na6Si2O7        -77.98     23.55  101.53  Na6Si2O7
  NaFeO2          -10.21      9.68   19.88  NaFeO2
  Nahcolite        -5.66     -5.81   -0.14  NaHCO3
  Natrolite         0.21     18.60   18.39  Na2Al2Si3O10:2H2O
  Natron          -10.37     -0.78    9.59  Na2CO3:10H2O
  Natrosilite     -14.61      3.46   18.07  Na2Si2O5
  NaUO3            -6.40      1.93    8.33  NaUO3
  Nepheline        -2.80     10.95   13.75  NaAlSiO4
  Nesquehonite     -3.33      1.96    5.29  MgCO3:3H2O
  Nontronite-Ca    14.17      2.44  -11.73  Ca.165Fe2Al.33Si3.67H2O12
  Nontronite-H     12.96      0.27  -12.69  H.33Fe2Al.33Si3.67H2O12
  Nontronite-K     13.57      1.55  -12.01  K.33Fe2Al.33Si3.67H2O12
  Nontronite-Mg    14.15      2.38  -11.77  Mg.165Fe2Al.33Si3.67H2O12
  Nontronite-Na    13.60      1.92  -11.68  Na.33Fe2Al.33Si3.67H2O12
  O2(g)           -52.72    -55.61   -2.89  O2
  Okenite          -3.71      6.60   10.31  CaSi2O4(OH)2:H2O
  Oxychloride-Mg  -12.51     13.32   25.83  Mg2Cl(OH)3:4H2O
  Paragonite        5.42     22.80   17.38  NaAl3Si3O10(OH)2
  Pargasite       -11.24     90.46  101.70  NaCa2Al3Mg4Si6O22(OH)2
  Pentahydrite     -6.09     -7.47   -1.39  MgSO4:5H2O
  Periclase        -8.53     12.79   21.33  MgO
  Phlogopite        4.31     41.61   37.30  KAlMg3Si3O10(OH)2
  Picromerite     -15.50    -19.94   -4.44  K2Mg(SO4)2:6H2O
  Pirssonite       -9.75      1.58   11.32  Na2Ca(CO3)2:2H2O
  Polyhalite      -19.78    -34.09  -14.31  K2MgCa2(SO4)4:2H2O
  Portlandite      -9.36     13.19   22.55  Ca(OH)2
  Prehnite          2.14     34.93   32.79  Ca2Al2Si3O10(OH)2
  Pseudowollastonite  -4.07      9.90   13.96  CaSiO3
  Pyrite          -53.09    -77.79  -24.70  FeS2
  Pyrophyllite      4.97      5.26    0.29  Al2Si4O10(OH)2
  Pyrrhotite      -33.50    -37.24   -3.74  FeS
  Quartz            0.73     -3.29   -4.03  SiO2
  Rankinite       -18.84     32.98   51.82  Ca3Si2O7
  Ripidolite-14A    6.31     67.09   60.78  Mg3Fe2Al2Si3O10(OH)8
  Ripidolite-7A     2.93     67.09   64.16  Mg3Fe2Al2Si3O10(OH)8
  Rutherfordine    -3.69     -7.81   -4.12  UO2CO3
  S               -30.01    -75.12  -45.11  S
  S2(g)           -73.92    -81.11   -7.19  S2
  Sanidine_high     2.42      3.24    0.82  KAlSi3O8
  Saponite-Ca       5.36     31.51   26.14  Ca.165Mg3Al.33Si3.67O10(OH)2
  Saponite-H        4.15     29.33   25.18  H.33Mg3Al.33Si3.67O10(OH)2
  Saponite-K        4.76     30.62   25.86  K.33Mg3Al.33Si3.67O10(OH)2
  Saponite-Mg       5.34     31.44   26.10  Mg3.165Al.33Si3.67O10(OH)2
  Saponite-Na       4.79     30.99   26.20  Na.33Mg3Al.33Si3.67O10(OH)2
  Schoepite        -1.82      3.02    4.83  UO3:2H2O
  Schoepite-dehy(.393)  -3.71      3.02    6.72  UO3:.393H2O
  Schoepite-dehy(.648)  -3.19      3.02    6.21  UO3:.648H2O
  Schoepite-dehy(.85)  -2.08      3.02    5.10  UO3:.85H2O
  Schoepite-dehy(.9)  -2.00      3.02    5.02  UO3:.9H2O
  Schoepite-dehy(1.0)  -2.09      3.02    5.10  UO3:H2O
  Scolecite         6.00     21.74   15.75  CaAl2Si3O10:3H2O
  Sepiolite         1.18     31.41   30.22  Mg4Si6O15(OH)2:6H2O
  Si              -96.54     52.32  148.86  Si
  Si(g)          -167.62     52.32  219.94  Si
  Siderite         -0.53     -0.75   -0.22  FeCO3
  Sillimanite      -1.10     15.14   16.24  Al2SiO5
  SiO2(am)         -0.55     -3.29   -2.74  SiO2
  Sklodowskite     -1.55     12.24   13.79  Mg(H3O)2(UO2)2(SiO4)2:4H2O
  Smectite-high-Fe-Mg   5.02     22.29   17.27  Ca.025Na.1K.2Fe.5Fe.2Mg1.15Al1.25Si3.5H2O12
  Smectite-low-Fe-Mg   5.26     16.15   10.89  Ca.02Na.15K.2Fe.29Fe.16Mg.9Al1.25Si3.75H2O12
  SO2(g)          -30.14    -29.96    0.18  SO2
  Soddyite          2.35      2.74    0.39  (UO2)2SiO4:2H2O
  Spinel           -6.38     31.23   37.61  Al2MgO4
  Starkeyite       -6.47     -7.47   -1.00  MgSO4:4H2O
  Stilbite         10.97     11.78    0.81  Ca1.019Na.136K.006Al2.18Si6.82O18:7.33H2O
  Sylvite          -9.19     -8.36    0.83  KCl
  Syngenite       -11.94    -19.54   -7.60  K2Ca(SO4)2:H2O
  Tachyhydrite    -51.95    -34.81   17.14  Mg2CaCl6:12H2O
  Talc              4.21     25.20   20.99  Mg3Si4O10(OH)2
  Thenardite       -9.86    -10.22   -0.36  Na2SO4
  Thermonatrite   -11.72     -0.78   10.94  Na2CO3:H2O
  Tobermorite-11A -19.21     46.18   65.39  Ca5Si6H11O22.5
  Tobermorite-14A -17.43     46.18   63.61  Ca5Si6H21O27.5
  Tobermorite-9A  -22.67     46.18   68.86  Ca5Si6H6O20
  Tremolite         3.06     63.99   60.93  Ca2Mg5Si8O22(OH)2
  Tridymite         0.55     -3.29   -3.84  SiO2
  Troilite        -33.39    -37.24   -3.84  FeS
  Trona-K         -20.43     -8.84   11.59  K2NaH(CO3)2:2H2O
  U              -126.32     86.44  212.77  U
  U(CO3)2         -32.30    -24.78    7.52  U(CO3)2
  U(g)           -211.88     86.44  298.32  U
  U(OH)2SO4       -20.31    -23.38   -3.07  U(OH)2SO4
  U(SO3)2         -44.50    -81.27  -36.77  U(SO3)2
  U(SO4)2         -32.11    -43.65  -11.53  U(SO4)2
  U(SO4)2:4H2O    -32.10    -43.65  -11.55  U(SO4)2:4H2O
  U(SO4)2:8H2O    -31.08    -43.65  -12.57  U(SO4)2:8H2O
  U2C3           -277.56    177.65  455.21  U2C3
  U2Cl10(g)      -211.42   -128.82   82.60  U2Cl10
  U2Cl8(g)       -186.62   -104.34   82.27  U2Cl8
  U2O2Cl5         -86.72    -67.53   19.19  U2O2Cl5
  U2S3           -188.56   -182.08    6.48  U2S3
  U3S5           -279.46   -279.83   -0.37  U3S5
  U5O12Cl          -8.95    -27.74  -18.79  U5O12Cl
  UC             -128.36     66.43  194.79  UC
  UC1.94(alpha)  -148.59    108.53  257.12  UC1.94
  UCl(g)         -181.50     40.26  221.75  UCl
  UCl2(g)        -149.64     34.11  183.74  UCl2
  UCl3            -69.82    -56.85   12.97  UCl3
  UCl3(g)        -115.44    -56.85   58.58  UCl3
  UCl4            -74.09    -52.17   21.92  UCl4
  UCl4(g)         -98.52    -52.17   46.35  UCl4
  UCl5           -101.64    -64.41   37.23  UCl5
  UCl5(g)        -118.86    -64.41   54.45  UCl5
  UCl6           -128.05    -70.56   57.50  UCl6
  UCl6(g)        -133.93    -70.56   63.37  UCl6
  UH3(beta)      -136.41     63.36  199.77  UH3
  UO(g)          -153.01     58.63  211.65  UO
  UO2(am)          -3.23     -3.12    0.11  UO2
  UO2(g)          -94.77     30.83  125.60  UO2
  UO2(OH)2(beta)   -1.93      3.02    4.95  UO2(OH)2
  UO2.25            1.73     -3.11   -4.84  UO2.25
  UO2.25(beta)      1.65     -3.11   -4.76  UO2.25
  UO2.3333(beta)    2.94    -24.78  -27.71  (UO2.3333)2
  UO2.6667          0.28    -43.32  -43.60  (UO2.6667)2
  UO2Cl           -14.82    -15.36   -0.53  UO2Cl
  UO2Cl2          -33.62    -21.51   12.11  UO2Cl2
  UO2Cl2(g)       -69.44    -21.51   47.93  UO2Cl2
  UO2Cl2:3H2O     -27.12    -21.51    5.61  UO2Cl2:3H2O
  UO2Cl2:H2O      -29.79    -21.51    8.28  UO2Cl2:H2O
  UO2ClOH:2H2O    -11.55     -9.24    2.30  UO2ClOH:2H2O
  UO2CO3           -3.68     -7.81   -4.13  UO2CO3
  UO2SO3          -20.06    -36.05  -15.99  UO2SO3
  UO2SO4          -19.17    -17.24    1.93  UO2SO4
  UO2SO4:2.5H2O   -15.74    -17.24   -1.50  UO2SO4:2.5H2O
  UO2SO4:3.5H2O   -15.75    -17.24   -1.49  UO2SO4:3.5H2O
  UO2SO4:3H2O     -15.83    -17.24   -1.41  UO2SO4:3H2O
  UO2SO4:H2O      -11.18    -17.24   -6.07  UO2SO4:H2O
  UO3(alpha)       -5.62      3.02    8.64  UO3
  UO3(beta)        -5.29      3.02    8.31  UO3
  UO3(g)          -67.93      3.02   70.95  UO3
  UO3(gamma)       -4.69      3.02    7.71  UO3
  UO3:.9H2O(alpha)  -2.00      3.02    5.02  UO3:.9H2O
  UO3:2H2O         -1.82      3.02    4.84  UO3:2H2O
  UOCl            -42.70    -32.33   10.37  UOCl
  UOCl2           -33.07    -27.65    5.42  UOCl2
  UOCl3           -52.47    -39.88   12.58  UOCl3
  Uraninite         1.71     -3.12   -4.83  UO2
  Uranophane       -4.64     12.64   17.29  Ca(UO2)2(SiO3)2(OH)2
  US             -100.12    -53.48   46.64  US
  US1.9           -94.10    -96.41   -2.31  US1.9
  US2             -95.39    -97.75   -2.36  US2
  US3            -122.24   -138.93  -16.69  US3
  Wairakite         0.53     18.45   17.92  CaAl2Si4O10(OH)4
  Weeksite        -21.30     -5.92   15.38  K2(UO2)2(Si2O5)3:4H2O
  Wollastonite     -3.83      9.90   13.72  CaSiO3
  Wustite          -3.43      8.97   12.40  Fe.947O
  Xonotlite       -32.37     59.37   91.74  Ca6Si6O17(OH)2
  Zoisite           1.01     44.15   43.14  Ca2Al3(SiO4)3OH

**For a gas, SI = log10(fugacity). Fugacity = pressure * phi / 1 atm.
  For ideal gases, phi = 1.

------------------
End of simulation.
------------------

------------------------------------
Reading input data for simulation 7.
------------------------------------

	USE SURFACE 1
	USE SOLUTION 1
	EQUILIBRIUM_PHASES 1
		Fix_H+ -7.2 NaOH 11.0 			
	END
-----------------------------------------
Beginning of batch-reaction calculations.
-----------------------------------------

Reaction step 1.

[...]
  Annite           -3.89     25.44   29.33  KFe3AlSi3O10(OH)2
  Anorthite        -1.74     24.74   26.48  CaAl2(SiO4)2
  Antarcticite    -15.40    -11.31    4.09  CaCl2:6H2O
  Anthophyllite   -22.92     43.56   66.48  Mg7Si8O22(OH)2
  Antigorite     -108.45    367.18  475.63  Mg48Si34O85(OH)62
  Aphthitalite    -79.43    -83.31   -3.89  NaK3(SO4)2
  Aragonite        -1.12      0.85    1.97  CaCO3
  Arcanite        -10.61    -12.46   -1.84  K2SO4
  Artinite         -9.20     10.42   19.63  Mg2CO3(OH)2:3H2O
  Bassanite        -3.34     -7.05   -3.71  CaSO4:0.5H2O
  Beidellite-Ca     8.59     14.03    5.44  Ca.165Al2.33Si3.67O10(OH)2
  Beidellite-H      7.83     12.32    4.49  H.33Al2.33Si3.67O10(OH)2
  Beidellite-K      7.98     13.14    5.16  K.33Al2.33Si3.67O10(OH)2
  Beidellite-Mg     8.56     13.97    5.41  Mg.165Al2.33Si3.67O10(OH)2
  Beidellite-Na   -11.63     -6.13    5.50  Na.33Al2.33Si3.67O10(OH)2
  Bischofite      -16.11    -11.72    4.39  MgCl2:6H2O
  Bloedite       -134.23   -136.71   -2.48  Na2Mg(SO4)2:4H2O
  Boehmite          2.91     10.46    7.55  AlO2H
  Boltwoodite     -12.10      2.78   14.89  K(H3O)(UO2)SiO4
  Boltwoodite-Na  -52.68    -38.10   14.58  Na.7K.3(H3O)(UO2)SiO4:H2O
  Brucite          -6.31      9.98   16.28  Mg(OH)2
  Burkeite       -389.37   -379.89    9.49  Na6CO3(SO4)2
  C               -23.90     40.24   64.15  C
  C(g)           -141.52     40.24  181.77  C
  Ca             -104.57     35.27  139.83  Ca
  Ca(g)          -129.81     35.27  165.07  Ca
  Ca-Al_Pyroxene   -7.88     28.02   35.90  CaAl2SiO6
  Ca2Al2O5:8H2O   -17.88     41.68   59.57  Ca2Al2O5:8H2O
  Ca2Cl2(OH)2:H2O -27.22     -0.93   26.29  Ca2Cl2(OH)2:H2O
  Ca3Al2O6        -60.97     52.07  113.03  Ca3Al2O6
  Ca4Al2Fe2O10    -71.06     69.42  140.48  Ca4Al2Fe2O10
  Ca4Al2O7:13H2O  -44.81     62.45  107.25  Ca4Al2O7:13H2O
  Ca4Al2O7:19H2O  -41.24     62.45  103.68  Ca4Al2O7:19H2O
  Ca4Cl2(OH)6:13H2O -48.50     19.83   68.33  Ca4Cl2(OH)6:13H2O
  CaAl2O4         -15.60     31.30   46.91  CaAl2O4
  CaAl2O4:10H2O    -6.69     31.30   37.99  CaAl2O4:10H2O
  CaAl4O7         -16.36     52.23   68.59  CaAl4O7
  Calcite          -0.97      0.85    1.82  CaCO3
  Carnallite      -24.35    -20.08    4.27  KMgCl3:6H2O
  CaSO4:0.5H2O(beta)  -3.51     -7.05   -3.54  CaSO4:0.5H2O
  CaUO4            -1.97     13.96   15.94  CaUO4
  Celadonite        2.47      9.78    7.31  KMgAlSi4O10(OH)2
  CH4(g)          -51.24    -54.08   -2.84  CH4
  Chalcedony        0.47     -3.28   -3.76  SiO2
  Chamosite-7A     -0.22     32.54   32.76  Fe2Al2SiO5(OH)4
  Chloromagnesite -33.53    -11.72   21.82  MgCl2
  Chrysotile       -7.67     23.36   31.03  Mg3Si2O5(OH)4
  Cl2(g)          -49.57    -46.58    2.99  Cl2
  Clinochlore-14A  -6.10     60.95   67.05  Mg5Al2Si3O10(OH)8
  Clinochlore-7A   -9.47     60.95   70.42  Mg5Al2Si3O10(OH)8
  Clinoptilolite-Ca  13.93      6.41   -7.52  Ca1.7335Al3.45Fe.017Si14.533O36:10.922H2O
  Clinoptilolite-dehy-Ca -21.73      6.41   28.14  Ca1.7335Al3.45Fe.017Si14.533O36
  Clinoptilolite-dehy-K -27.17     -2.97   24.20  K3.467Al3.45Fe.017Si14.533O36
  Clinoptilolite-dehy-Na-233.46   -205.45   28.01  Na3.467Al3.45Fe.017Si14.533O36
  Clinoptilolite-hy-Ca  13.93      6.41   -7.52  Ca1.7335Al3.45Fe.017Si14.533O36:11.645H2O
  Clinoptilolite-hy-K   8.49     -2.97  -11.45  K3.467Al3.45Fe.017Si14.533O36:7.499H2O
  Clinoptilolite-hy-Na-197.80   -205.45   -7.65  Na3.467Al3.45Fe.017Si14.533O36:10.877H2O
  Clinoptilolite-K   8.48     -2.97  -11.45  K3.467Al3.45Fe.017Si14.533O36:10.922H2O
  Clinoptilolite-Na-197.81   -205.45   -7.64  Na3.467Al3.45Fe.017Si14.533O36:10.922H2O
  Clinozoisite     -0.81     42.29   43.10  Ca2Al3Si3O12(OH)
  CO(g)           -23.32    -26.32   -3.00  CO
  CO2(g)           -1.70     -9.53   -7.83  CO2
  Coesite          -0.07     -3.28   -3.22  SiO2
  Coffinite        -0.70     -8.77   -8.07  USiO4
  Cordierite_anhyd  -6.69     45.38   52.07  Mg2Al4Si5O18
  Cordierite_hydr  -4.21     45.38   49.59  Mg2Al4Si5O18:H2O
  Corundum          2.63     20.92   18.29  Al2O3
  Cristobalite(alpha)   0.19     -3.28   -3.48  SiO2
  Cristobalite(beta)  -0.25     -3.28   -3.03  SiO2
  Cronstedtite-7A   2.41     18.59   16.18  Fe2Fe2SiO5(OH)4
  Daphnite-14A     -3.78     48.32   52.10  Fe5AlAlSi3O10(OH)8
  Daphnite-7A      -7.16     48.32   55.48  Fe5AlAlSi3O10(OH)8
  Dawsonite       -59.32    -54.98    4.34  NaAlCO3(OH)2
  Diaspore          3.32     10.46    7.15  AlHO2
  Dicalcium_silicate -19.65     17.48   37.13  Ca2SiO4
  Diopside         -7.10     13.79   20.89  CaMgSi2O6
  Dolomite         -1.17      1.30    2.47  CaMg(CO3)2
  Dolomite-dis     -2.71      1.30    4.01  CaMg(CO3)2
  Dolomite-ord     -1.16      1.30    2.46  CaMg(CO3)2
  Enstatite        -4.60      6.69   11.29  MgSiO3
  Epidote           2.54     35.32   32.77  Ca2FeAl2Si3O12OH
  Epidote-ord       2.55     35.32   32.76  FeCa2Al2(OH)(SiO4)3
  Epsomite         -5.49     -7.45   -1.96  MgSO4:7H2O
  Ettringite      -31.54     30.93   62.46  Ca6Al2(SO4)3(OH)12:26H2O
  Fayalite         -7.45     11.61   19.06  Fe2SiO4
  Fe              -26.68     32.33   59.02  Fe
  Fe(OH)2          -6.44      7.45   13.89  Fe(OH)2
  Fe(OH)3          -2.15      3.49    5.64  Fe(OH)3
  Fe2(SO4)3       -48.35    -45.30    3.05  Fe2(SO4)3
  FeO              -6.07      7.45   13.52  FeO
  Ferrite-Ca       -4.14     17.36   21.50  CaFe2O4
  Ferrite-Dicalcium -29.06     27.74   56.80  Ca2Fe2O5
  Ferrite-Mg       -4.07     16.95   21.02  MgFe2O4
  Ferrosilite      -3.24      4.17    7.41  FeSiO3
  FeSO4           -12.58     -9.98    2.61  FeSO4
  Fix_H+           -6.79     -6.79    0.00  H+
  Forsterite      -11.14     16.67   27.81  Mg2SiO4
  Foshagite       -34.13     31.67   65.80  Ca4Si3O9(OH)2:0.5H2O
  Gaylussite     -131.67   -120.51   11.16  CaNa2(CO3)2:5H2O
  Gehlenite       -17.82     38.40   56.22  Ca2Al2SiO7
  Gibbsite          2.72     10.46    7.74  Al(OH)3
  Gismondine        7.75     49.47   41.72  Ca2Al4Si4O16:9H2O
  Glauberite     -130.84   -136.31   -5.47  Na2Ca(SO4)2
  Goethite          2.96      3.49    0.53  FeOOH
  Greenalite       -6.80     15.78   22.58  Fe3Si2O5(OH)4
  Grossular        -9.57     42.21   51.78  Ca3Al2(SiO4)3
  Gypsum           -2.52     -7.05   -4.53  CaSO4:2H2O
  Gyrolite        -11.90     10.91   22.80  Ca2Si3O7(OH)2:1.5H2O
  H2(g)           -18.11    -21.21   -3.10  H2
  H2O(g)           -1.59     -0.00    1.59  H2O
  H2S(g)          -48.18    -56.17   -7.99  H2S
  Haiweeite         4.88     -2.16   -7.04  Ca(UO2)2(Si2O5)3:5H2O
  Halite          -68.33    -66.76    1.56  NaCl
  Hatrurite       -45.49     27.86   73.35  Ca3SiO5
  HCl(g)          -17.15    -10.85    6.30  HCl
  Hedenbergite     -8.27     11.26   19.53  CaFe(SiO3)2
  Hematite          6.90      6.98    0.08  Fe2O3
  Hercynite        -0.43     28.37   28.80  FeAl2O4
  Hexahydrite      -5.72     -7.45   -1.73  MgSO4:6H2O
  Hillebrandite   -19.29     17.48   36.77  Ca2SiO3(OH)2:0.17H2O
  Huntite          -8.02      2.20   10.22  CaMg3(CO3)4
  Hydromagnesite  -18.97     11.77   30.74  Mg5(CO3)4(OH)2:4H2O
  Hydrophilite    -23.06    -11.31   11.75  CaCl2
  Ice              -0.14     -0.00    0.14  H2O
  Illite            7.67     16.55    8.88  K0.6Mg0.25Al1.8Al0.5Si3.5O10(OH)2
  Jadeite         -60.33    -52.03    8.31  NaAl(SiO3)2
  Jarosite        -12.49    -21.90   -9.41  KFe3(SO4)2(OH)6
  Jarosite-Na     -74.86    -80.31   -5.45  NaFe3(SO4)2(OH)6
  K               -56.05     14.93   70.98  K
  K(g)            -66.65     14.93   81.58  K
  K-Feldspar        3.47      3.09   -0.38  KAlSi3O8
  K2CO3:1.5H2O    -17.94     -4.56   13.38  K2CO3:1.5H2O
  K2O             -79.06      4.97   84.04  K2O
  K2UO4           -25.32      8.55   33.87  K2UO4
  K3H(SO4)2       -23.77    -27.40   -3.62  K3H(SO4)2
  K8H4(CO3)6:3H2O -64.99    -37.28   27.71  K8H4(CO3)6:3H2O
  Kainite         -15.50    -15.81   -0.31  KMgClSO4:3H2O
  KAl(SO4)2       -25.18    -21.91    3.27  KAl(SO4)2
  Kalicinite       -7.33     -7.04    0.28  KHCO3
  Kalsilite        -1.19      9.66   10.85  KAlSiO4
  Kaolinite         7.64     14.35    6.72  Al2Si2O5(OH)4
  Katoite         -26.88     52.07   78.94  Ca3Al2H12O12
  Kieserite        -7.18     -7.45   -0.27  MgSO4:H2O
  KMgCl3          -41.32    -20.08   21.25  KMgCl3
  KMgCl3:2H2O     -34.04    -20.08   13.96  KMgCl3:2H2O
  KNaCO3:6H2O     -73.22    -62.96   10.26  KNaCO3:6H2O
  Kyanite           2.03     17.64   15.61  Al2SiO5
  Lansfordite      -4.39      0.45    4.84  MgCO3:5H2O
  Larnite         -20.94     17.48   38.42  Ca2SiO4
  Laumontite        4.66     18.17   13.51  CaAl2Si4O12:4H2O
  Lawrencite      -23.30    -14.24    9.05  FeCl2
  Lawsonite         2.63     24.73   22.11  CaAl2Si2O7(OH)2:H2O
  Leonite         -15.79    -19.91   -4.11  K2Mg(SO4)2:4H2O
  Lime            -22.19     10.38   32.57  CaO
  Magnesite        -1.82      0.45    2.27  MgCO3
  Magnetite         4.01     14.43   10.42  Fe3O4
  Margarite         4.73     45.66   40.93  CaAl4Si2O10(OH)2
  Maximum_Microcline   3.47      3.09   -0.38  KAlSi3O8
  Mayenite       -223.12    271.03  494.15  Ca12Al14O33
  Melanterite      -7.58     -9.98   -2.40  FeSO4:7H2O
  Mercallite      -13.50    -14.94   -1.44  KHSO4
  Merwinite       -33.86     34.55   68.41  MgCa3(SiO4)2
  Mesolite        -33.54    -20.05   13.49  Na.676Ca.657Al1.99Si3.01O10:2.647H2O
  Mg              -87.66     34.86  122.52  Mg
  Mg(g)          -107.38     34.86  142.25  Mg
  Mg1.25SO4(OH)0.5:0.5H2O -10.15     -4.96    5.20  Mg1.25SO4(OH)0.5:0.5H2O
  Mg1.5SO4(OH)    -11.67     -2.46    9.21  Mg1.5SO4(OH)
  MgCl2:2H2O      -24.45    -11.72   12.73  MgCl2:2H2O
  MgCl2:4H2O      -19.02    -11.72    7.30  MgCl2:4H2O
  MgCl2:H2O       -27.79    -11.72   16.07  MgCl2:H2O
  MgOHCl          -16.76     -0.87   15.89  MgOHCl
  MgSO4           -12.28     -7.45    4.83  MgSO4
  MgUO4            -9.43     13.56   22.99  MgUO4
  Minnesotaite     -4.62      9.21   13.83  Fe3Si4O10(OH)2
  Mirabilite     -128.11   -129.26   -1.15  Na2SO4:10H2O
  Misenite        -91.03   -102.10  -11.08  K8H6(SO4)7
  Molysite        -42.52    -29.05   13.47  FeCl3
  Monohydrocalcite  -1.83      0.85    2.68  CaCO3:H2O
  Monticellite    -12.46     17.07   29.53  CaMgSiO4
  Montmor-Ca        6.99      9.34    2.34  Ca.165Mg.33Al1.67Si4O10(OH)2
  Montmor-K         6.46      8.44    1.99  K.33Mg.33Al1.67Si4O10(OH)2
  Montmor-Mg        7.04      9.27    2.23  Mg.495Al1.67Si4O10(OH)2
  Montmor-Na      -13.16    -10.83    2.33  Na.33Mg.33Al1.67Si4O10(OH)2
  Mordenite       -18.61    -23.97   -5.36  Ca.2895Na.361Al.94Si5.06O12:3.468H2O
  Mordenite-dehy  -33.73    -23.97    9.77  Ca.2895Na.361Al.94Si5.06O12
  Muscovite        10.57     24.02   13.45  KAl3Si3O10(OH)2
  Na             -110.85    -43.48   67.37  Na
  Na(g)          -124.33    -43.48   80.86  Na
  Na2CO3         -132.53   -121.36   11.16  Na2CO3
  Na2CO3:7H2O    -131.30   -121.36    9.94  Na2CO3:7H2O
  Na2O           -179.25   -111.84   67.42  Na2O
  Na2SiO3        -137.32   -115.12   22.20  Na2SiO3
  Na2U2O7        -127.26   -104.67   22.59  Na2U2O7
  Na2UO4(alpha)  -138.27   -108.25   30.02  Na2UO4
  Na3H(SO4)2     -201.72   -202.61   -0.89  Na3H(SO4)2
  Na3UO4         -227.99   -171.75   56.24  Na3UO4
  Na4Ca(SO4)3:2H2O-259.68   -265.57   -5.89  Na4Ca(SO4)3:2H2O
  Na4SiO4        -297.55   -226.95   70.60  Na4SiO4
  Na4UO2(CO3)3   -252.71   -248.67    4.04  Na4UO2(CO3)3
  Na6Si2O7       -443.60   -342.07  101.53  Na6Si2O7
  NaFeO2          -72.31    -52.43   19.88  NaFeO2
  Nahcolite       -65.30    -65.45   -0.14  NaHCO3
  Natrolite      -119.16   -100.77   18.39  Na2Al2Si3O10:2H2O
  Natron         -130.95   -121.36    9.59  Na2CO3:10H2O
  Natrosilite    -136.47   -118.40   18.07  Na2Si2O5
  NaUO3           -68.24    -59.91    8.33  NaUO3
  Nepheline       -62.49    -48.74   13.75  NaAlSiO4
  Nesquehonite     -4.84      0.45    5.29  MgCO3:3H2O
  Nontronite-Ca    11.82      0.09  -11.73  Ca.165Fe2Al.33Si3.67H2O12
  Nontronite-H     11.06     -1.63  -12.69  H.33Fe2Al.33Si3.67H2O12
  Nontronite-K     11.21     -0.81  -12.01  K.33Fe2Al.33Si3.67H2O12
  Nontronite-Mg    11.79      0.02  -11.77  Mg.165Fe2Al.33Si3.67H2O12
  Nontronite-Na    -8.40    -20.08  -11.68  Na.33Fe2Al.33Si3.67H2O12
  O2(g)           -46.88    -49.77   -2.89  O2
  Okenite          -6.50      3.81   10.31  CaSi2O4(OH)2:H2O
  Oxychloride-Mg  -16.73      9.11   25.83  Mg2Cl(OH)3:4H2O
  Paragonite      -51.77    -34.39   17.38  NaAl3Si3O10(OH)2
  Pargasite       -85.27     16.43  101.70  NaCa2Al3Mg4Si6O22(OH)2
  Pentahydrite     -6.06     -7.45   -1.39  MgSO4:5H2O
  Periclase       -11.35      9.98   21.33  MgO
  Phlogopite       -4.27     33.02   37.30  KAlMg3Si3O10(OH)2
  Picromerite     -15.47    -19.91   -4.44  K2Mg(SO4)2:6H2O
  Pirssonite     -131.83   -120.51   11.32  Na2Ca(CO3)2:2H2O
  Polyhalite      -19.69    -34.00  -14.31  K2MgCa2(SO4)4:2H2O
  Portlandite     -12.17     10.38   22.55  Ca(OH)2
  Prehnite         -0.96     31.83   32.79  Ca2Al2Si3O10(OH)2
  Pseudowollastonite  -6.87      7.10   13.96  CaSiO3
  Pyrite          -70.51    -95.21  -24.70  FeS2
  Pyrophyllite      7.50      7.78    0.29  Al2Si4O10(OH)2
  Pyrrhotite      -44.98    -48.72   -3.74  FeS
  Quartz            0.74     -3.28   -4.03  SiO2
  Rankinite       -27.25     24.57   51.82  Ca3Si2O7
  Ripidolite-14A   -4.88     55.90   60.78  Mg3Fe2Al2Si3O10(OH)8
  Ripidolite-7A    -8.26     55.90   64.16  Mg3Fe2Al2Si3O10(OH)8
  Rutherfordine    -1.83     -5.95   -4.12  UO2CO3
  S               -35.94    -81.06  -45.11  S
  S2(g)           -85.78    -92.97   -7.19  S2
  Sanidine_high     2.28      3.09    0.82  KAlSi3O8
  Saponite-Ca      -3.10     23.04   26.14  Ca.165Mg3Al.33Si3.67O10(OH)2
  Saponite-H       -3.86     21.33   25.18  H.33Mg3Al.33Si3.67O10(OH)2
  Saponite-K       -3.71     22.15   25.86  K.33Mg3Al.33Si3.67O10(OH)2
  Saponite-Mg      -3.13     22.97   26.10  Mg3.165Al.33Si3.67O10(OH)2
  Saponite-Na     -23.32      2.87   26.20  Na.33Mg3Al.33Si3.67O10(OH)2
  Schoepite        -1.25      3.58    4.83  UO3:2H2O
  Schoepite-dehy(.393)  -3.14      3.58    6.72  UO3:.393H2O
  Schoepite-dehy(.648)  -2.62      3.58    6.21  UO3:.648H2O
  Schoepite-dehy(.85)  -1.52      3.58    5.10  UO3:.85H2O
  Schoepite-dehy(.9)  -1.44      3.58    5.02  UO3:.9H2O
  Schoepite-dehy(1.0)  -1.52      3.58    5.10  UO3:H2O
  Scolecite         5.71     21.45   15.75  CaAl2Si3O10:3H2O
  Sepiolite       -10.02     20.20   30.22  Mg4Si6O15(OH)2:6H2O
  Si             -102.38     46.48  148.86  Si
  Si(g)          -173.45     46.48  219.94  Si
  Siderite         -1.86     -2.08   -0.22  FeCO3
  Sillimanite       1.40     17.64   16.24  Al2SiO5
  SiO2(am)         -0.54     -3.28   -2.74  SiO2
  Sklodowskite     -3.22     10.57   13.79  Mg(H3O)2(UO2)2(SiO4)2:4H2O
  Smectite-high-Fe-Mg  -4.63     12.64   17.27  Ca.025Na.1K.2Fe.5Fe.2Mg1.15Al1.25Si3.5H2O12
  Smectite-low-Fe-Mg  -6.12      4.77   10.89  Ca.02Na.15K.2Fe.29Fe.16Mg.9Al1.25Si3.75H2O12
  SO2(g)          -30.22    -30.05    0.18  SO2
  Soddyite          3.49      3.88    0.39  (UO2)2SiO4:2H2O
  Spinel           -6.71     30.90   37.61  Al2MgO4
  Starkeyite       -6.45     -7.45   -1.00  MgSO4:4H2O
  Stilbite          2.58      3.39    0.81  Ca1.019Na.136K.006Al2.18Si6.82O18:7.33H2O
  Sylvite          -9.19     -8.36    0.83  KCl
  Syngenite       -11.90    -19.50   -7.60  K2Ca(SO4)2:H2O
  Tachyhydrite    -51.89    -34.74   17.14  Mg2CaCl6:12H2O
  Talc             -4.20     16.79   20.99  Mg3Si4O10(OH)2
  Thenardite     -128.90   -129.26   -0.36  Na2SO4
  Thermonatrite  -132.30   -121.36   10.94  Na2CO3:H2O
  Tobermorite-11A -33.20     32.19   65.39  Ca5Si6H11O22.5
  Tobermorite-14A -31.42     32.19   63.61  Ca5Si6H21O27.5
  Tobermorite-9A  -36.66     32.19   68.86  Ca5Si6H6O20
  Tremolite       -16.56     44.37   60.93  Ca2Mg5Si8O22(OH)2
  Tridymite         0.56     -3.28   -3.84  SiO2
  Troilite        -44.88    -48.72   -3.84  FeS
  Trona-K         -81.59    -70.00   11.59  K2NaH(CO3)2:2H2O
  U              -134.53     78.24  212.77  U
  U(CO3)2         -32.06    -24.54    7.52  U(CO3)2
  U(g)           -220.08     78.24  298.32  U
  U(OH)2SO4       -19.83    -22.91   -3.07  U(OH)2SO4
  U(SO3)2         -47.03    -83.80  -36.77  U(SO3)2
  U(SO4)2         -28.80    -40.33  -11.53  U(SO4)2
  U(SO4)2:4H2O    -28.79    -40.33  -11.55  U(SO4)2:4H2O
  U(SO4)2:8H2O    -27.77    -40.33  -12.57  U(SO4)2:8H2O
  U2C3           -307.61    147.61  455.21  U2C3
  U2Cl10(g)      -199.05   -116.44   82.60  U2Cl10
  U2Cl8(g)       -180.00    -97.73   82.27  U2Cl8
  U2O2Cl5         -82.89    -63.70   19.19  U2O2Cl5
  U2S3           -222.77   -216.28    6.48  U2S3
  U3S5           -333.73   -334.11   -0.37  U3S5
  U5O12Cl         -12.02    -30.81  -18.79  U5O12Cl
  UC             -141.11     53.68  194.79  UC
  UC1.94(alpha)  -165.61     91.51  257.12  UC1.94
  UCl(g)         -186.82     34.93  221.75  UCl
  UCl2(g)        -152.08     31.66  183.74  UCl2
  UCl3            -69.39    -56.42   12.97  UCl3
  UCl3(g)        -115.01    -56.42   58.58  UCl3
  UCl4            -70.78    -48.86   21.92  UCl4
  UCl4(g)         -95.21    -48.86   46.35  UCl4
  UCl5            -95.45    -58.22   37.23  UCl5
  UCl5(g)        -112.67    -58.22   54.45  UCl5
  UCl6           -118.99    -61.49   57.50  UCl6
  UCl6(g)        -124.86    -61.49   63.37  UCl6
  UH3(beta)      -149.00     50.77  199.77  UH3
  UO(g)          -158.30     53.35  211.65  UO
  UO2(am)          -5.59     -5.48    0.11  UO2
  UO2(g)          -97.13     28.47  125.60  UO2
  UO2(OH)2(beta)   -1.37      3.58    4.95  UO2(OH)2
  UO2.25            0.10     -4.74   -4.84  UO2.25
  UO2.25(beta)      0.02     -4.74   -4.76  UO2.25
  UO2.3333(beta)    0.16    -27.55  -27.71  (UO2.3333)2
  UO2.6667         -0.54    -44.14  -43.60  (UO2.6667)2
  UO2Cl           -14.30    -14.84   -0.53  UO2Cl
  UO2Cl2          -30.22    -18.11   12.11  UO2Cl2
  UO2Cl2(g)       -66.04    -18.11   47.93  UO2Cl2
  UO2Cl2:3H2O     -23.72    -18.11    5.61  UO2Cl2:3H2O
  UO2Cl2:H2O      -26.39    -18.11    8.28  UO2Cl2:H2O
  UO2ClOH:2H2O     -9.57     -7.26    2.30  UO2ClOH:2H2O
  UO2CO3           -1.82     -5.95   -4.13  UO2CO3
  UO2SO3          -19.59    -35.58  -15.99  UO2SO3
  UO2SO4          -15.77    -13.84    1.93  UO2SO4
  UO2SO4:2.5H2O   -12.34    -13.84   -1.50  UO2SO4:2.5H2O
  UO2SO4:3.5H2O   -12.36    -13.84   -1.49  UO2SO4:3.5H2O
  UO2SO4:3H2O     -12.43    -13.84   -1.41  UO2SO4:3H2O
  UO2SO4:H2O       -7.78    -13.84   -6.07  UO2SO4:H2O
  UO3(alpha)       -5.06      3.58    8.64  UO3
  UO3(beta)        -4.73      3.58    8.31  UO3
  UO3(g)          -67.37      3.58   70.95  UO3
  UO3(gamma)       -4.13      3.58    7.71  UO3
  UO3:.9H2O(alpha)  -1.44      3.58    5.02  UO3:.9H2O
  UO3:2H2O         -1.25      3.58    4.84  UO3:2H2O
  UOCl            -45.10    -34.73   10.37  UOCl
  UOCl2           -32.59    -27.17    5.42  UOCl2
  UOCl3           -49.11    -36.53   12.58  UOCl3
  Uraninite        -0.65     -5.48   -4.83  UO2
  Uranophane       -6.31     10.98   17.29  Ca(UO2)2(SiO3)2(OH)2
  US             -114.26    -67.61   46.64  US
  US1.9          -113.58   -115.89   -2.31  US1.9
  US2            -115.46   -117.82   -2.36  US2
  US3            -148.24   -164.93  -16.69  US3
  Wairakite         0.25     18.17   17.92  CaAl2Si4O10(OH)4
  Weeksite        -22.95     -7.57   15.38  K2(UO2)2(Si2O5)3:4H2O
  Wollastonite     -6.63      7.10   13.72  CaSiO3
  Wustite          -5.77      6.64   12.40  Fe.947O
  Xonotlite       -49.16     42.57   91.74  Ca6Si6O17(OH)2
  Zoisite          -0.84     42.29   43.14  Ca2Al3(SiO4)3OH

**For a gas, SI = log10(fugacity). Fugacity = pressure * phi / 1 atm.
  For ideal gases, phi = 1.

------------------
End of simulation.
------------------

-------------------------------------
Reading input data for simulation 10.
-------------------------------------

----------------------------------
End of Run after 0.100083 Seconds.
----------------------------------

