   Input file: SCM_run.phr
  Output file: SCM_run.phr.out
Database file: phreeqc/database/llnl.dat

------------------
Reading data base.
------------------

	LLNL_AQUEOUS_MODEL_PARAMETERS
	NAMED_EXPRESSIONS
	SOLUTION_MASTER_SPECIES
	SOLUTION_SPECIES
	PHASES
	EXCHANGE_MASTER_SPECIES
	EXCHANGE_SPECIES
	SURFACE_MASTER_SPECIES
	SURFACE_SPECIES
	RATES
	END
------------------------------------
Reading input data for simulation 1.
------------------------------------

	SURFACE_MASTER_SPECIES 
	Surf_ Surf_OH
	SURFACE_SPECIES
	Surf_OH = Surf_OH   		# montmorillonite protonation reactions 
		log_k	0.0
	Surf_OH + H+ = Surf_OH2+
		log_k	7.29
	Surf_OH = Surf_O- + H+
		log_k	-8.93
	Surf_OH + UO2+2 = Surf_OUO2+ + H+
		log_k  2.66796875                        # log_k = 2.6 		
	END
------------------
End of simulation.
------------------

------------------------------------
Reading input data for simulation 2.
------------------------------------

	SURFACE 1
		sites DENSITY
		Surf_OH		2.31	0.35	12.5	# name of site, site density, specific area/gram, grams
	END
------------------
End of simulation.
------------------

------------------------------------
Reading input data for simulation 3.
------------------------------------

	SELECTED_OUTPUT
	file			output_2.xls
	reset		true
	totals		 
	molalities	UO2+2  UO2+ Surf_OUO2+     
	END
------------------
End of simulation.
------------------

------------------------------------
Reading input data for simulation 4.
------------------------------------

	SOLUTION 1 SGW2
	  temperature	25.0  # [ C]
	  pressure	1.0   # [atm]
	  density	1.0   # [kg/L], default
	  water	1.0   # [kg], default
	  ph		8.2   # Real value (SGW2) 
	  pe 		-1.69 # Eh = -100 mV 
	  redox	pe    # default
	  units	mg/L
	  Na	16.5	#charge
	  K		2.1
	  Ca	34.6
	  Mg	8.3
	  Cl	3.3
	  S		21.0	as SO4	charge
	  C		168.7	CO2(g) -3.00
	  Si	31.2	as SiO2
	  Al 	0.1	# First estimate
	  Fe	0.1	# First estimate
	  U(+6)	4.547265625
	END
-------------------------------------------
Beginning of initial solution calculations.
-------------------------------------------

Initial solution 1.	SGW2

-----------------------------Solution composition------------------------------

	Elements           Molality       Moles

	Al                3.707e-06   3.707e-06
	C                 2.688e-03   2.688e-03  Equilibrium with CO2(g)
	Ca                8.636e-04   8.636e-04
	Cl                9.311e-05   9.311e-05
	Fe                1.791e-06   1.791e-06
	K                 5.373e-05   5.373e-05
	Mg                3.416e-04   3.416e-04
	Na                7.179e-04   7.179e-04
	S                 1.807e-04   1.807e-04  Charge balance
	Si                5.195e-04   5.195e-04
	U(6)              1.911e-05   1.911e-05

----------------------------Description of solution----------------------------

                                       pH  =   8.200    
                                       pe  =  -1.690    
                        Activity of water  =   1.000
                 Ionic strength (mol/kgw)  =   4.455e-03
                       Mass of water (kg)  =   1.000e+00
                 Total alkalinity (eq/kg)  =   2.780e-03
                       Total CO2 (mol/kg)  =   2.688e-03
                         Temperature (°C)  =  25.00
                  Electrical balance (eq)  =   4.341e-19
 Percent error, 100*(Cat-|An|)/(Cat+|An|)  =   0.00
                               Iterations  =  12
                                  Total H  = 1.110532e+02
                                  Total O  = 5.553518e+01

----------------------------Distribution of species----------------------------

                                               Log       Log       Log    mole V
   Species          Molality    Activity  Molality  Activity     Gamma    cm³/mol

   OH-             1.642e-06   1.527e-06    -5.785    -5.816    -0.032     (0)  
   H+              6.735e-09   6.310e-09    -8.172    -8.200    -0.028      0.00
   H2O             5.553e+01   9.999e-01     1.744    -0.000     0.000     (0)  
Al            3.707e-06
   AlO2-           3.644e-06   3.392e-06    -5.438    -5.470    -0.031     (0)  
   HAlO2           6.247e-08   6.247e-08    -7.204    -7.204     0.000     (0)  
   NaAlO2          4.304e-10   4.304e-10    -9.366    -9.366     0.000     (0)  
   Al(OH)2+        2.910e-10   2.708e-10    -9.536    -9.567    -0.031     (0)  
   AlOH+2          9.794e-13   7.360e-13   -12.009   -12.133    -0.124     (0)  
   Al+3            7.481e-16   4.146e-16   -15.126   -15.382    -0.256     (0)  
   AlSO4+          5.508e-17   5.126e-17   -16.259   -16.290    -0.031     (0)  
   Al(SO4)2-       5.167e-19   4.809e-19   -18.287   -18.318    -0.031     (0)  
   Al2(OH)2+4      2.704e-22   8.808e-23   -21.568   -22.055    -0.487     (0)  
   Al3(OH)4+5      3.359e-27   5.920e-28   -26.474   -27.228    -0.754     (0)  
   Al13O4(OH)24+7   1.497e-35   4.984e-37   -34.825   -36.302    -1.478     (0)  
C(-2)         0.000e+00
   C2H4            0.000e+00   0.000e+00   -96.209   -96.209     0.000     (0)  
C(-3)         0.000e+00
   C2H6            0.000e+00   0.000e+00   -61.896   -61.896     0.000     (0)  
C(-4)         9.775e-36
   CH4             9.775e-36   9.775e-36   -35.010   -35.010     0.000     (0)  
C(2)          2.986e-23
   CO              2.986e-23   2.986e-23   -22.525   -22.525     0.000     (0)  
C(4)          2.688e-03
   HCO3-           2.526e-03   2.351e-03    -2.598    -2.629    -0.031     (0)  
   CO2             3.438e-05   3.441e-05    -4.464    -4.463     0.000     (0)  
   CaCO3           2.354e-05   2.354e-05    -4.628    -4.628     0.000     (0)  
   CO3-2           2.200e-05   1.653e-05    -4.658    -4.782    -0.124     (0)  
   CaHCO3+         1.839e-05   1.712e-05    -4.735    -4.767    -0.031     (0)  
   UO2(CO3)3-4     1.160e-05   3.654e-06    -4.935    -5.437    -0.502     (0)  
   MgHCO3+         7.236e-06   6.734e-06    -5.141    -5.172    -0.031     (0)  
   UO2(CO3)2-2     6.555e-06   4.912e-06    -5.183    -5.309    -0.125     (0)  
   MgCO3           4.313e-06   4.313e-06    -5.365    -5.365     0.000     (0)  
   NaHCO3          2.237e-06   2.237e-06    -5.650    -5.650     0.000     (0)  
   FeHCO3+         6.479e-07   6.030e-07    -6.189    -6.220    -0.031     (0)  
   FeCO3           4.587e-07   4.587e-07    -6.339    -6.339     0.000     (0)  
   (UO2)2CO3(OH)3-   3.306e-07   3.077e-07    -6.481    -6.512    -0.031     (0)  
   NaCO3-          4.135e-08   3.848e-08    -7.384    -7.415    -0.031     (0)  
   UO2CO3          1.544e-08   1.544e-08    -7.811    -7.811     0.000     (0)  
   (UO2)3(CO3)6-6   2.272e-12   1.687e-13   -11.644   -12.773    -1.129     (0)  
   FeCO3+          9.814e-17   9.133e-17   -16.008   -16.039    -0.031     (0)  
   (UO2)3(OH)5CO2+   2.470e-18   2.299e-18   -17.607   -17.639    -0.031     (0)  
   (UO2)3O(OH)2(HCO3)+   1.992e-18   1.854e-18   -17.701   -17.732    -0.031     (0)  
   (UO2)11(CO3)6(OH)12-2   1.538e-34   1.152e-34   -33.813   -33.938    -0.125     (0)  
Ca            8.636e-04
   Ca+2            8.108e-04   6.144e-04    -3.091    -3.212    -0.120     (0)  
   CaCO3           2.354e-05   2.354e-05    -4.628    -4.628     0.000     (0)  
   CaHCO3+         1.839e-05   1.712e-05    -4.735    -4.767    -0.031     (0)  
   CaSO4           1.084e-05   1.084e-05    -4.965    -4.965     0.000     (0)  
   CaOH+           1.478e-08   1.375e-08    -7.830    -7.862    -0.031     (0)  
   CaCl+           1.210e-08   1.126e-08    -7.917    -7.948    -0.031     (0)  
   CaCl2           1.146e-12   1.146e-12   -11.941   -11.941     0.000     (0)  
Cl(-1)        9.311e-05
   Cl-             9.307e-05   8.649e-05    -4.031    -4.063    -0.032     (0)  
   MgCl+           1.789e-08   1.665e-08    -7.747    -7.779    -0.031     (0)  
   CaCl+           1.210e-08   1.126e-08    -7.917    -7.948    -0.031     (0)  
   NaCl            1.011e-08   1.011e-08    -7.995    -7.995     0.000     (0)  
   KCl             1.449e-10   1.449e-10    -9.839    -9.839     0.000     (0)  
   FeCl+           3.308e-11   3.079e-11   -10.480   -10.512    -0.031     (0)  
   CaCl2           1.146e-12   1.146e-12   -11.941   -11.941     0.000     (0)  
   HCl             1.226e-13   1.226e-13   -12.912   -12.912     0.000     (0)  
   UO2Cl+          2.574e-17   2.395e-17   -16.589   -16.621    -0.031     (0)  
   FeCl2           1.429e-17   1.429e-17   -16.845   -16.845     0.000     (0)  
   UO2Cl2          1.061e-22   1.061e-22   -21.974   -21.974     0.000     (0)  
   FeCl4-2         4.122e-25   3.089e-25   -24.385   -24.510    -0.125     (0)  
   FeCl+2          1.834e-26   1.379e-26   -25.737   -25.861    -0.124     (0)  
   FeCl2+          1.037e-27   9.652e-28   -26.984   -27.015    -0.031     (0)  
   FeCl4-          9.327e-39   8.681e-39   -38.030   -38.061    -0.031     (0)  
Cl(1)         0.000e+00
   ClO-            0.000e+00   0.000e+00   -49.120   -49.152    -0.031     (0)  
   HClO            0.000e+00   0.000e+00   -49.782   -49.782     0.000     (0)  
Cl(3)         0.000e+00
   ClO2-           0.000e+00   0.000e+00   -87.104   -87.135    -0.031     (0)  
   HClO2           0.000e+00   0.000e+00   -92.165   -92.165     0.000     (0)  
Cl(5)         0.000e+00
   ClO3-           0.000e+00   0.000e+00  -111.234  -111.266    -0.032     (0)  
   UO2ClO3+        0.000e+00   0.000e+00  -123.459  -123.490    -0.031     (0)  
Cl(7)         0.000e+00
   ClO4-           0.000e+00   0.000e+00  -139.667  -139.698    -0.032     (0)  
Fe(2)         1.787e-06
   FeHCO3+         6.479e-07   6.030e-07    -6.189    -6.220    -0.031     (0)  
   Fe+2            6.448e-07   4.886e-07    -6.191    -6.311    -0.120     (0)  
   FeCO3           4.587e-07   4.587e-07    -6.339    -6.339     0.000     (0)  
   FeOH+           2.631e-08   2.449e-08    -7.580    -7.611    -0.031     (0)  
   FeSO4           9.359e-09   9.359e-09    -8.029    -8.029     0.000     (0)  
   FeCl+           3.308e-11   3.079e-11   -10.480   -10.512    -0.031     (0)  
   Fe(OH)2         3.083e-11   3.083e-11   -10.511   -10.511     0.000     (0)  
   Fe(OH)3-        2.090e-13   1.945e-13   -12.680   -12.711    -0.031     (0)  
   FeCl2           1.429e-17   1.429e-17   -16.845   -16.845     0.000     (0)  
   Fe(OH)4-2       4.113e-20   3.082e-20   -19.386   -19.511    -0.125     (0)  
   FeCl4-2         4.122e-25   3.089e-25   -24.385   -24.510    -0.125     (0)  
Fe(3)         4.025e-09
   Fe(OH)3         3.807e-09   3.807e-09    -8.419    -8.419     0.000     (0)  
   Fe(OH)4-        1.628e-10   1.515e-10    -9.788    -9.819    -0.031     (0)  
   Fe(OH)2+        5.519e-11   5.136e-11   -10.258   -10.289    -0.031     (0)  
   FeOH+2          1.302e-15   9.788e-16   -14.885   -15.009    -0.124     (0)  
   FeCO3+          9.814e-17   9.133e-17   -16.008   -16.039    -0.031     (0)  
   Fe+3            1.726e-21   9.566e-22   -20.763   -21.019    -0.256     (0)  
   FeSO4+          1.202e-23   1.118e-23   -22.920   -22.951    -0.031     (0)  
   Fe(SO4)2-       2.455e-26   2.285e-26   -25.610   -25.641    -0.031     (0)  
   FeCl+2          1.834e-26   1.379e-26   -25.737   -25.861    -0.124     (0)  
   FeCl2+          1.037e-27   9.652e-28   -26.984   -27.015    -0.031     (0)  
   Fe2(OH)2+4      7.915e-29   2.578e-29   -28.102   -28.589    -0.487     (0)  
   Fe3(OH)4+5      1.570e-36   2.767e-37   -35.804   -36.558    -0.754     (0)  
   FeCl4-          9.327e-39   8.681e-39   -38.030   -38.061    -0.031     (0)  
H(0)          1.514e-16
   H2              7.570e-17   7.578e-17   -16.121   -16.120     0.000     (0)  
K             5.373e-05
   K+              5.367e-05   4.988e-05    -4.270    -4.302    -0.032     (0)  
   KSO4-           5.228e-08   4.865e-08    -7.282    -7.313    -0.031     (0)  
   KCl             1.449e-10   1.449e-10    -9.839    -9.839     0.000     (0)  
   KOH             2.741e-11   2.741e-11   -10.562   -10.562     0.000     (0)  
   KHSO4           2.708e-16   2.708e-16   -15.567   -15.567     0.000     (0)  
Mg            3.416e-04
   Mg+2            3.221e-04   2.466e-04    -3.492    -3.608    -0.116     (0)  
   MgSO4           7.958e-06   7.958e-06    -5.099    -5.099     0.000     (0)  
   MgHCO3+         7.236e-06   6.734e-06    -5.141    -5.172    -0.031     (0)  
   MgCO3           4.313e-06   4.313e-06    -5.365    -5.365     0.000     (0)  
   MgCl+           1.789e-08   1.665e-08    -7.747    -7.779    -0.031     (0)  
   Mg4(OH)4+4      1.273e-21   4.148e-22   -20.895   -21.382    -0.487     (0)  
Na            7.179e-04
   Na+             7.148e-04   6.652e-04    -3.146    -3.177    -0.031     (0)  
   NaHCO3          2.237e-06   2.237e-06    -5.650    -5.650     0.000     (0)  
   NaSO4-          5.707e-07   5.311e-07    -6.244    -6.275    -0.031     (0)  
   NaHSiO3         2.889e-07   2.889e-07    -6.539    -6.539     0.000     (0)  
   NaCO3-          4.135e-08   3.848e-08    -7.384    -7.415    -0.031     (0)  
   NaCl            1.011e-08   1.011e-08    -7.995    -7.995     0.000     (0)  
   NaAlO2          4.304e-10   4.304e-10    -9.366    -9.366     0.000     (0)  
   NaOH            1.752e-10   1.752e-10    -9.756    -9.756     0.000     (0)  
O(0)          0.000e+00
   O2              0.000e+00   0.000e+00   -59.956   -59.955     0.000     (0)  
S(-2)         3.688e-31
   HS-             3.479e-31   3.236e-31   -30.459   -30.490    -0.032     (0)  
   H2S             2.087e-32   2.087e-32   -31.681   -31.681     0.000     (0)  
   S-2             8.069e-36   6.081e-36   -35.093   -35.216    -0.123     (0)  
   S2-2            0.000e+00   0.000e+00   -57.575   -57.700    -0.125     (0)  
   S3-2            0.000e+00   0.000e+00   -80.100   -80.225    -0.125     (0)  
   S4-2            0.000e+00   0.000e+00  -102.852  -102.978    -0.125     (0)  
   S5-2            0.000e+00   0.000e+00  -125.822  -125.947    -0.125     (0)  
S(2)          4.241e-38
   S2O3-2          2.120e-38   1.589e-38   -37.674   -37.799    -0.125     (0)  
   HS2O3-          0.000e+00   0.000e+00   -44.954   -44.985    -0.031     (0)  
   UO2S2O3         0.000e+00   0.000e+00   -48.305   -48.305     0.000     (0)  
S(3)          0.000e+00
   S2O4-2          0.000e+00   0.000e+00   -52.582   -52.705    -0.123     (0)  
S(4)          4.001e-21
   SO3-2           3.681e-21   2.767e-21   -20.434   -20.558    -0.124     (0)  
   HSO3-           3.197e-22   2.975e-22   -21.495   -21.526    -0.031     (0)  
   UO2SO3          2.918e-27   2.918e-27   -26.535   -26.535     0.000     (0)  
   H2SO3           1.799e-28   1.799e-28   -27.745   -27.745     0.000     (0)  
   SO2             1.429e-28   1.429e-28   -27.845   -27.845     0.000     (0)  
   S2O6-2          0.000e+00   0.000e+00   -45.501   -45.627    -0.125     (0)  
   UO2(SO3)2-2     0.000e+00   0.000e+00   -45.811   -45.936    -0.125     (0)  
   S3O6-2          0.000e+00   0.000e+00   -70.509   -70.635    -0.125     (0)  
   S4O6-2          0.000e+00   0.000e+00   -79.612   -79.737    -0.125     (0)  
   S5O6-2          0.000e+00   0.000e+00  -117.594  -117.719    -0.125     (0)  
S(5)          0.000e+00
   S2O5-2          0.000e+00   0.000e+00   -47.758   -47.883    -0.125     (0)  
S(6)          1.807e-04
   SO4-2           1.613e-04   1.208e-04    -3.792    -3.918    -0.125     (0)  
   CaSO4           1.084e-05   1.084e-05    -4.965    -4.965     0.000     (0)  
   MgSO4           7.958e-06   7.958e-06    -5.099    -5.099     0.000     (0)  
   NaSO4-          5.707e-07   5.311e-07    -6.244    -6.275    -0.031     (0)  
   KSO4-           5.228e-08   4.865e-08    -7.282    -7.313    -0.031     (0)  
   FeSO4           9.359e-09   9.359e-09    -8.029    -8.029     0.000     (0)  
   HSO4-           8.276e-11   7.702e-11   -10.082   -10.113    -0.031     (0)  
   UO2SO4          2.735e-14   2.735e-14   -13.563   -13.563     0.000     (0)  
   KHSO4           2.708e-16   2.708e-16   -15.567   -15.567     0.000     (0)  
   AlSO4+          5.508e-17   5.126e-17   -16.259   -16.290    -0.031     (0)  
   UO2(SO4)2-2     3.909e-17   2.929e-17   -16.408   -16.533    -0.125     (0)  
   Al(SO4)2-       5.167e-19   4.809e-19   -18.287   -18.318    -0.031     (0)  
   H2SO4           4.585e-22   4.585e-22   -21.339   -21.339     0.000     (0)  
   FeSO4+          1.202e-23   1.118e-23   -22.920   -22.951    -0.031     (0)  
   Fe(SO4)2-       2.455e-26   2.285e-26   -25.610   -25.641    -0.031     (0)  
S(7)          0.000e+00
   S2O8-2          0.000e+00   0.000e+00   -76.543   -76.668    -0.125     (0)  
S(8)          0.000e+00
   HSO5-           0.000e+00   0.000e+00   -59.325   -59.356    -0.031     (0)  
Si            5.195e-04
   SiO2            5.093e-04   5.093e-04    -3.293    -3.293     0.000     (0)  
   HSiO3-          9.906e-06   9.219e-06    -5.004    -5.035    -0.031     (0)  
   NaHSiO3         2.889e-07   2.889e-07    -6.539    -6.539     0.000     (0)  
   H2SiO4-2        1.872e-10   1.403e-10    -9.728    -9.853    -0.125     (0)  
   H6(H2SiO4)4-2   5.164e-11   3.869e-11   -10.287   -10.412    -0.125     (0)  
   H4(H2SiO4)4-4   1.547e-16   4.871e-17   -15.810   -16.312    -0.502     (0)  
U(6)          1.911e-05
   UO2(CO3)3-4     1.160e-05   3.654e-06    -4.935    -5.437    -0.502     (0)  
   UO2(CO3)2-2     6.555e-06   4.912e-06    -5.183    -5.309    -0.125     (0)  
   (UO2)2CO3(OH)3-   3.306e-07   3.077e-07    -6.481    -6.512    -0.031     (0)  
   UO2(OH)2        2.266e-07   2.266e-07    -6.645    -6.645     0.000     (0)  
   UO2(OH)3-       4.777e-08   4.446e-08    -7.321    -7.352    -0.031     (0)  
   UO2CO3          1.544e-08   1.544e-08    -7.811    -7.811     0.000     (0)  
   UO2OH+          1.962e-10   1.826e-10    -9.707    -9.738    -0.031     (0)  
   (UO2)3(CO3)6-6   2.272e-12   1.687e-13   -11.644   -12.773    -1.129     (0)  
   (UO2)3(OH)7-    1.548e-12   1.441e-12   -11.810   -11.841    -0.031     (0)  
   UO2+2           2.477e-13   1.862e-13   -12.606   -12.730    -0.124     (0)  
   (UO2)3(OH)5+    1.765e-13   1.643e-13   -12.753   -12.784    -0.031     (0)  
   UO2(OH)4-2      1.465e-13   1.098e-13   -12.834   -12.959    -0.125     (0)  
   UO2SO4          2.735e-14   2.735e-14   -13.563   -13.563     0.000     (0)  
   (UO2)2(OH)2+2   2.693e-15   2.024e-15   -14.570   -14.694    -0.124     (0)  
   (UO2)4(OH)7+    3.629e-16   3.377e-16   -15.440   -15.471    -0.031     (0)  
   UO2(SO4)2-2     3.909e-17   2.929e-17   -16.408   -16.533    -0.125     (0)  
   UO2Cl+          2.574e-17   2.395e-17   -16.589   -16.621    -0.031     (0)  
   (UO2)3(OH)4+2   6.377e-18   4.792e-18   -17.195   -17.319    -0.124     (0)  
   (UO2)3(OH)5CO2+   2.470e-18   2.299e-18   -17.607   -17.639    -0.031     (0)  
   (UO2)3O(OH)2(HCO3)+   1.992e-18   1.854e-18   -17.701   -17.732    -0.031     (0)  
   (UO2)2OH+3      2.038e-20   1.078e-20   -19.691   -19.967    -0.277     (0)  
   UO2Cl2          1.061e-22   1.061e-22   -21.974   -21.974     0.000     (0)  
   UO2SO3          2.918e-27   2.918e-27   -26.535   -26.535     0.000     (0)  
   (UO2)11(CO3)6(OH)12-2   1.538e-34   1.152e-34   -33.813   -33.938    -0.125     (0)  
   UO2(SO3)2-2     0.000e+00   0.000e+00   -45.811   -45.936    -0.125     (0)  
   UO2S2O3         0.000e+00   0.000e+00   -48.305   -48.305     0.000     (0)  
   UO2ClO3+        0.000e+00   0.000e+00  -123.459  -123.490    -0.031     (0)  

------------------------------Saturation indices-------------------------------

  Phase               SI** log IAP   log K(298 K,   1 atm)

  Afwillite       -26.98     32.98   59.96  Ca3Si2O4(OH)6
  Akermanite      -12.65     32.58   45.23  Ca2MgSi2O7
  Al              -95.73     54.18  149.91  Al
  Al(g)          -146.43     54.18  200.62  Al
  Al2(SO4)3       -61.42    -42.52   18.90  Al2(SO4)3
  Al2(SO4)3:6H2O  -44.07    -42.52    1.56  Al2(SO4)3:6H2O
  Albite            1.70      4.36    2.66  NaAlSi3O8
  Albite_high       0.39      4.36    3.98  NaAlSi3O8
  Albite_low        1.70      4.36    2.66  NaAlSi3O8
  Alum-K          -22.55    -27.52   -4.97  KAl(SO4)2:12H2O
  Alunite          -8.62     -9.09   -0.47  KAl3(OH)6(SO4)2
  Amesite-14A       6.18     81.45   75.27  Mg4Al4Si2O10(OH)8
  Analcime          0.89      6.95    6.06  Na.96Al.96Si2.04O6:H2O
  Analcime-dehy    -5.47      6.95   12.42  Na.96Al.96Si2.04O6
  Andalusite       -0.74     15.14   15.88  Al2SiO5
  Andradite         3.66     36.85   33.19  Ca3Fe2(SiO4)3
  Anhydrite        -2.78     -7.13   -4.35  CaSO4
  Annite            4.17     33.50   29.33  KFe3AlSi3O10(OH)2
  Anorthite        -1.44     25.04   26.48  CaAl2(SiO4)2
  Antarcticite    -15.43    -11.34    4.09  CaCl2:6H2O
  Anthophyllite    -3.28     63.20   66.48  Mg7Si8O22(OH)2
  Antigorite       26.42    502.05  475.63  Mg48Si34O85(OH)62
  Aphthitalite    -20.03    -23.92   -3.89  NaK3(SO4)2
  Aragonite         0.39      2.36    1.97  CaCO3
  Arcanite        -10.68    -12.52   -1.84  K2SO4
  Artinite         -4.87     14.76   19.63  Mg2CO3(OH)2:3H2O
  Bassanite        -3.42     -7.13   -3.71  CaSO4:0.5H2O
  Beidellite-Ca     6.12     11.57    5.44  Ca.165Al2.33Si3.67O10(OH)2
  Beidellite-H      4.90      9.39    4.49  H.33Al2.33Si3.67O10(OH)2
  Beidellite-K      5.52     10.68    5.16  K.33Al2.33Si3.67O10(OH)2
  Beidellite-Mg     6.10     11.50    5.41  Mg.165Al2.33Si3.67O10(OH)2
  Beidellite-Na     5.55     11.05    5.50  Na.33Al2.33Si3.67O10(OH)2
  Bischofite      -16.13    -11.73    4.39  MgCl2:6H2O
  Bloedite        -15.32    -17.80   -2.48  Na2Mg(SO4)2:4H2O
  Boehmite          1.67      9.22    7.55  AlO2H
  Boltwoodite     -10.61      4.27   14.89  K(H3O)(UO2)SiO4
  Boltwoodite-Na   -9.52      5.06   14.58  Na.7K.3(H3O)(UO2)SiO4:H2O
  Brucite          -3.49     12.79   16.28  Mg(OH)2
  Burkeite        -30.81    -21.33    9.49  Na6CO3(SO4)2
  C               -15.02     49.13   64.15  C
  C(g)           -132.64     49.13  181.77  C
  Ca              -96.67     43.17  139.83  Ca
  Ca(g)          -121.91     43.17  165.07  Ca
  Ca-Al_Pyroxene   -7.57     28.33   35.90  CaAl2SiO6
  Ca2Al2O5:8H2O   -14.76     44.81   59.57  Ca2Al2O5:8H2O
  Ca2Cl2(OH)2:H2O -24.44      1.85   26.29  Ca2Cl2(OH)2:H2O
  Ca3Al2O6        -55.03     58.00  113.03  Ca3Al2O6
  Ca4Al2Fe2O10    -62.13     78.35  140.48  Ca4Al2Fe2O10
  Ca4Al2O7:13H2O  -36.07     71.19  107.25  Ca4Al2O7:13H2O
  Ca4Al2O7:19H2O  -32.49     71.19  103.68  Ca4Al2O7:19H2O
  Ca4Cl2(OH)6:13H2O -40.10     28.23   68.33  Ca4Cl2(OH)6:13H2O
  CaAl2O4         -15.28     31.62   46.91  CaAl2O4
  CaAl2O4:10H2O    -6.37     31.62   37.99  CaAl2O4:10H2O
  CaAl4O7         -18.53     50.06   68.59  CaAl4O7
  Calcite           0.54      2.36    1.82  CaCO3
  Carnallite      -24.37    -20.10    4.27  KMgCl3:6H2O
  CaSO4:0.5H2O(beta)  -3.59     -7.13   -3.54  CaSO4:0.5H2O
  CaUO4             0.92     16.86   15.94  CaUO4
  Celadonite        5.43     12.74    7.31  KMgAlSi4O10(OH)2
  CH4(g)          -32.17    -35.01   -2.84  CH4
  Chalcedony        0.46     -3.29   -3.76  SiO2
  Chamosite-7A      2.56     35.32   32.76  Fe2Al2SiO5(OH)4
  Chloromagnesite -33.55    -11.73   21.82  MgCl2
  Chrysotile        0.76     31.79   31.03  Mg3Si2O5(OH)4
  Cl2(g)          -57.50    -54.50    2.99  Cl2
  Clinochlore-14A   5.47     72.52   67.05  Mg5Al2Si3O10(OH)8
  Clinochlore-7A    2.09     72.52   70.42  Mg5Al2Si3O10(OH)8
  Clinoptilolite-Ca  14.38      6.87   -7.52  Ca1.7335Al3.45Fe.017Si14.533O36:10.922H2O
  Clinoptilolite-dehy-Ca -21.27      6.87   28.14  Ca1.7335Al3.45Fe.017Si14.533O36
  Clinoptilolite-dehy-K -26.69     -2.48   24.20  K3.467Al3.45Fe.017Si14.533O36
  Clinoptilolite-dehy-Na -26.59      1.42   28.01  Na3.467Al3.45Fe.017Si14.533O36
  Clinoptilolite-hy-Ca  14.38      6.87   -7.52  Ca1.7335Al3.45Fe.017Si14.533O36:11.645H2O
  Clinoptilolite-hy-K   8.97     -2.48  -11.45  K3.467Al3.45Fe.017Si14.533O36:7.499H2O
  Clinoptilolite-hy-Na   9.06      1.42   -7.65  Na3.467Al3.45Fe.017Si14.533O36:10.877H2O
  Clinoptilolite-K   8.97     -2.48  -11.45  K3.467Al3.45Fe.017Si14.533O36:10.922H2O
  Clinoptilolite-Na   9.06      1.42   -7.64  Na3.467Al3.45Fe.017Si14.533O36:10.922H2O
  Clinozoisite      1.05     44.15   43.10  Ca2Al3Si3O12(OH)
  CO(g)           -19.53    -22.52   -3.00  CO
  CO2(g)           -3.00    -10.83   -7.83  CO2
  Coesite          -0.07     -3.29   -3.22  SiO2
  Cordierite_anhyd  -6.08     45.99   52.07  Mg2Al4Si5O18
  Cordierite_hydr  -3.60     45.99   49.59  Mg2Al4Si5O18:H2O
  Corundum          0.14     18.44   18.29  Al2O3
  Cristobalite(alpha)   0.18     -3.29   -3.48  SiO2
  Cristobalite(beta)  -0.26     -3.29   -3.03  SiO2
  Cronstedtite-7A   7.87     24.05   16.18  Fe2Fe2SiO5(OH)4
  Daphnite-14A      6.90     59.00   52.10  Fe5AlAlSi3O10(OH)8
  Daphnite-7A       3.52     59.00   55.48  Fe5AlAlSi3O10(OH)8
  Dawsonite        -0.93      3.41    4.34  NaAlCO3(OH)2
  Diaspore          2.07      9.22    7.15  AlHO2
  Dicalcium_silicate -14.04     23.08   37.13  Ca2SiO4
  Diopside         -1.49     19.39   20.89  CaMgSi2O6
  Dolomite          1.85      4.32    2.47  CaMg(CO3)2
  Dolomite-dis      0.31      4.32    4.01  CaMg(CO3)2
  Dolomite-ord      1.86      4.32    2.46  CaMg(CO3)2
  Enstatite        -1.79      9.50   11.29  MgSiO3
  Epidote           5.74     38.51   32.77  Ca2FeAl2Si3O12OH
  Epidote-ord       5.75     38.51   32.76  FeCa2Al2(OH)(SiO4)3
  Epsomite         -5.56     -7.53   -1.96  MgSO4:7H2O
  Ettringite      -25.85     36.61   62.46  Ca6Al2(SO4)3(OH)12:26H2O
  Fayalite         -2.18     16.88   19.06  Fe2SiO4
  Fe              -18.95     40.07   59.02  Fe
  Fe(OH)2          -3.81     10.09   13.89  Fe(OH)2
  Fe(OH)3          -2.06      3.58    5.64  Fe(OH)3
  Fe2(SO4)3       -56.84    -53.79    3.05  Fe2(SO4)3
  FeO              -3.43     10.09   13.52  FeO
  Ferrite-Ca       -1.15     20.35   21.50  CaFe2O4
  Ferrite-Dicalcium -23.26     33.54   56.80  Ca2Fe2O5
  Ferrite-Mg       -1.07     19.95   21.02  MgFe2O4
  Ferrosilite      -0.61      6.80    7.41  FeSiO3
  FeSO4           -12.84    -10.23    2.61  FeSO4
  Forsterite       -5.52     22.29   27.81  Mg2SiO4
  Foshagite       -22.92     42.87   65.80  Ca4Si3O9(OH)2:0.5H2O
  Gaylussite       -9.59      1.58   11.16  CaNa2(CO3)2:5H2O
  Gehlenite       -14.70     41.52   56.22  Ca2Al2SiO7
  Gibbsite          1.48      9.22    7.74  Al(OH)3
  Gismondine        8.36     50.07   41.72  Ca2Al4Si4O16:9H2O
  Glauberite      -11.93    -17.40   -5.47  Na2Ca(SO4)2
  Goethite          3.05      3.58    0.53  FeOOH
  Greenalite        1.10     23.68   22.58  Fe3Si2O5(OH)4
  Grossular        -3.66     48.12   51.78  Ca3Al2(SiO4)3
  Gypsum           -2.60     -7.13   -4.53  CaSO4:2H2O
  Gyrolite         -6.31     16.50   22.80  Ca2Si3O7(OH)2:1.5H2O
  H2(g)           -13.02    -16.12   -3.10  H2
  H2O(g)           -1.59     -0.00    1.59  H2O
  H2S(g)          -30.70    -38.69   -7.99  H2S
  Haiweeite         7.81      0.77   -7.04  Ca(UO2)2(Si2O5)3:5H2O
  Halite           -8.80     -7.24    1.56  NaCl
  Hatrurite       -37.08     36.27   73.35  Ca3SiO5
  HCl(g)          -18.56    -12.26    6.30  HCl
  Hedenbergite     -2.84     16.69   19.53  CaFe(SiO3)2
  Hematite          7.09      7.16    0.08  Fe2O3
  Hercynite        -0.28     28.52   28.80  FeAl2O4
  Hexahydrite      -5.80     -7.53   -1.73  MgSO4:6H2O
  Hillebrandite   -13.69     23.08   36.77  Ca2SiO3(OH)2:0.17H2O
  Huntite          -1.97      8.25   10.22  CaMg3(CO3)4
  Hydromagnesite  -10.09     20.64   30.74  Mg5(CO3)4(OH)2:4H2O
  Hydrophilite    -23.08    -11.34   11.75  CaCl2
  Ice              -0.14     -0.00    0.14  H2O
  Illite            6.33     15.21    8.88  K0.6Mg0.25Al1.8Al0.5Si3.5O10(OH)2
  Jadeite          -0.66      7.65    8.31  NaAl(SiO3)2
  Jarosite        -16.59    -26.00   -9.41  KFe3(SO4)2(OH)6
  Jarosite-Na     -19.42    -24.87   -5.45  NaFe3(SO4)2(OH)6
  K               -52.09     18.89   70.98  K
  K(g)            -62.69     18.89   81.58  K
  K-Feldspar        3.62      3.24   -0.38  KAlSi3O8
  K2CO3:1.5H2O    -16.41     -3.03   13.38  K2CO3:1.5H2O
  K2O             -76.24      7.80   84.04  K2O
  K2UO4           -22.41     11.47   33.87  K2UO4
  K3H(SO4)2       -25.32    -28.94   -3.62  K3H(SO4)2
  K8H4(CO3)6:3H2O -61.50    -33.79   27.71  K8H4(CO3)6:3H2O
  Kainite         -15.58    -15.89   -0.31  KMgClSO4:3H2O
  KAl(SO4)2       -30.79    -27.52    3.27  KAl(SO4)2
  Kalicinite       -7.21     -6.93    0.28  KHCO3
  Kalsilite        -1.03      9.82   10.85  KAlSiO4
  Kaolinite         5.13     11.85    6.72  Al2Si2O5(OH)4
  Katoite         -20.94     58.00   78.94  Ca3Al2H12O12
  Kieserite        -7.26     -7.53   -0.27  MgSO4:H2O
  KMgCl3          -41.35    -20.10   21.25  KMgCl3
  KMgCl3:2H2O     -34.06    -20.10   13.96  KMgCl3:2H2O
  KNaCO3:6H2O     -12.17     -1.91   10.26  KNaCO3:6H2O
  Kyanite          -0.47     15.14   15.61  Al2SiO5
  Lansfordite      -2.88      1.96    4.84  MgCO3:5H2O
  Larnite         -15.34     23.08   38.42  Ca2SiO4
  Laumontite        4.94     18.45   13.51  CaAl2Si4O12:4H2O
  Lawrencite      -23.49    -14.44    9.05  FeCl2
  Lawsonite         2.93     25.04   22.11  CaAl2Si2O7(OH)2:H2O
  Leonite         -15.94    -20.05   -4.11  K2Mg(SO4)2:4H2O
  Lime            -19.38     13.19   32.57  CaO
  Magnesite        -0.31      1.96    2.27  MgCO3
  Magnetite         6.83     17.25   10.42  Fe3O4
  Margarite         2.55     43.47   40.93  CaAl4Si2O10(OH)2
  Maximum_Microcline   3.62      3.24   -0.38  KAlSi3O8
  Mayenite       -206.85    287.31  494.15  Ca12Al14O33
  Melanterite      -7.83    -10.23   -2.40  FeSO4:7H2O
  Mercallite      -14.98    -16.42   -1.44  KHSO4
  Merwinite       -22.64     45.77   68.41  MgCa3(SiO4)2
  Mesolite          7.00     20.49   13.49  Na.676Ca.657Al1.99Si3.01O10:2.647H2O
  Mg              -79.75     42.77  122.52  Mg
  Mg(g)           -99.48     42.77  142.25  Mg
  Mg1.25SO4(OH)0.5:0.5H2O  -9.52     -4.33    5.20  Mg1.25SO4(OH)0.5:0.5H2O
  Mg1.5SO4(OH)    -10.34     -1.13    9.21  Mg1.5SO4(OH)
  MgCl2:2H2O      -24.47    -11.73   12.73  MgCl2:2H2O
  MgCl2:4H2O      -19.04    -11.73    7.30  MgCl2:4H2O
  MgCl2:H2O       -27.81    -11.73   16.07  MgCl2:H2O
  MgOHCl          -15.36      0.53   15.89  MgOHCl
  MgSO4           -12.35     -7.53    4.83  MgSO4
  MgUO4            -6.53     16.46   22.99  MgUO4
  Minnesotaite      3.26     17.09   13.83  Fe3Si4O10(OH)2
  Mirabilite       -9.12    -10.27   -1.15  Na2SO4:10H2O
  Misenite        -99.97   -111.04  -11.08  K8H6(SO4)7
  Molysite        -46.68    -33.21   13.47  FeCl3
  Monohydrocalcite  -0.32      2.36    2.68  CaCO3:H2O
  Monticellite     -6.84     22.69   29.53  CaMgSiO4
  Montmor-Ca        6.27      8.62    2.34  Ca.165Mg.33Al1.67Si4O10(OH)2
  Montmor-K         5.74      7.73    1.99  K.33Mg.33Al1.67Si4O10(OH)2
  Montmor-Mg        6.32      8.55    2.23  Mg.495Al1.67Si4O10(OH)2
  Montmor-Na        5.77      8.10    2.33  Na.33Mg.33Al1.67Si4O10(OH)2
  Mordenite         2.99     -2.37   -5.36  Ca.2895Na.361Al.94Si5.06O12:3.468H2O
  Mordenite-dehy  -12.13     -2.37    9.77  Ca.2895Na.361Al.94Si5.06O12
  Muscovite         8.22     21.67   13.45  KAl3Si3O10(OH)2
  Na              -47.36     20.01   67.37  Na
  Na(g)           -60.85     20.01   80.86  Na
  Na2CO3          -11.95     -0.78   11.16  Na2CO3
  Na2CO3:7H2O     -10.72     -0.78    9.94  Na2CO3:7H2O
  Na2O            -57.37     10.05   67.42  Na2O
  Na2SiO3         -15.45      6.75   22.20  Na2SiO3
  Na2U2O7          -5.20     17.39   22.59  Na2U2O7
  Na2UO4(alpha)   -16.30     13.72   30.02  Na2UO4
  Na3H(SO4)2      -24.68    -25.57   -0.89  Na3H(SO4)2
  Na4Ca(SO4)3:2H2O -21.78    -27.67   -5.89  Na4Ca(SO4)3:2H2O
  Na4SiO4         -53.80     16.80   70.60  Na4SiO4
  Na4UO2(CO3)3    -12.76     -8.72    4.04  Na4UO2(CO3)3
  Na6Si2O7        -77.98     23.55  101.53  Na6Si2O7
  NaFeO2          -11.28      8.60   19.88  NaFeO2
  Nahcolite        -5.66     -5.81   -0.14  NaHCO3
  Natrolite         0.21     18.60   18.39  Na2Al2Si3O10:2H2O
  Natron          -10.37     -0.78    9.59  Na2CO3:10H2O
  Natrosilite     -14.61      3.46   18.07  Na2Si2O5
  Nepheline        -2.80     10.95   13.75  NaAlSiO4
  Nesquehonite     -3.33      1.96    5.29  MgCO3:3H2O
  Nontronite-Ca    12.02      0.29  -11.73  Ca.165Fe2Al.33Si3.67H2O12
  Nontronite-H     10.81     -1.88  -12.69  H.33Fe2Al.33Si3.67H2O12
  Nontronite-K     11.42     -0.60  -12.01  K.33Fe2Al.33Si3.67H2O12
  Nontronite-Mg    12.00      0.23  -11.77  Mg.165Fe2Al.33Si3.67H2O12
  Nontronite-Na    11.45     -0.22  -11.68  Na.33Fe2Al.33Si3.67H2O12
  O2(g)           -57.06    -59.96   -2.89  O2
  Okenite          -3.71      6.60   10.31  CaSi2O4(OH)2:H2O
  Oxychloride-Mg  -12.51     13.32   25.83  Mg2Cl(OH)3:4H2O
  Paragonite        5.42     22.80   17.38  NaAl3Si3O10(OH)2
  Pargasite       -11.23     90.46  101.70  NaCa2Al3Mg4Si6O22(OH)2
  Pentahydrite     -6.14     -7.53   -1.39  MgSO4:5H2O
  Periclase        -8.53     12.79   21.33  MgO
  Phlogopite        4.32     41.61   37.30  KAlMg3Si3O10(OH)2
  Picromerite     -15.61    -20.05   -4.44  K2Mg(SO4)2:6H2O
  Pirssonite       -9.75      1.58   11.32  Na2Ca(CO3)2:2H2O
  Polyhalite      -19.99    -34.31  -14.31  K2MgCa2(SO4)4:2H2O
  Portlandite      -9.36     13.19   22.55  Ca(OH)2
  Prehnite          2.14     34.93   32.79  Ca2Al2Si3O10(OH)2
  Pseudowollastonite  -4.07      9.90   13.96  CaSiO3
  Pyrite          -38.00    -62.70  -24.70  FeS2
  Pyrophyllite      4.97      5.26    0.29  Al2Si4O10(OH)2
  Pyrrhotite      -24.86    -28.60   -3.74  FeS
  Quartz            0.73     -3.29   -4.03  SiO2
  Rankinite       -18.84     32.98   51.82  Ca3Si2O7
  Ripidolite-14A    6.33     67.11   60.78  Mg3Fe2Al2Si3O10(OH)8
  Ripidolite-7A     2.95     67.11   64.16  Mg3Fe2Al2Si3O10(OH)8
  Rutherfordine    -3.04     -7.16   -4.12  UO2CO3
  S               -23.56    -68.67  -45.11  S
  S2(g)           -61.01    -68.19   -7.19  S2
  Sanidine_high     2.42      3.24    0.82  KAlSi3O8
  Saponite-Ca       5.37     31.51   26.14  Ca.165Mg3Al.33Si3.67O10(OH)2
  Saponite-H        4.15     29.33   25.18  H.33Mg3Al.33Si3.67O10(OH)2
  Saponite-K        4.76     30.62   25.86  K.33Mg3Al.33Si3.67O10(OH)2
  Saponite-Mg       5.34     31.44   26.10  Mg3.165Al.33Si3.67O10(OH)2
  Saponite-Na       4.79     30.99   26.20  Na.33Mg3Al.33Si3.67O10(OH)2
  Schoepite        -1.16      3.67    4.83  UO3:2H2O
  Schoepite-dehy(.393)  -3.05      3.67    6.72  UO3:.393H2O
  Schoepite-dehy(.648)  -2.54      3.67    6.21  UO3:.648H2O
  Schoepite-dehy(.85)  -1.43      3.67    5.10  UO3:.85H2O
  Schoepite-dehy(.9)  -1.35      3.67    5.02  UO3:.9H2O
  Schoepite-dehy(1.0)  -1.43      3.67    5.10  UO3:H2O
  Scolecite         6.00     21.74   15.75  CaAl2Si3O10:3H2O
  Sepiolite         1.19     31.41   30.22  Mg4Si6O15(OH)2:6H2O
  Si              -92.20     56.66  148.86  Si
  Si(g)          -163.28     56.66  219.94  Si
  Siderite         -0.52     -0.74   -0.22  FeCO3
  Sillimanite      -1.10     15.14   16.24  Al2SiO5
  SiO2(am)         -0.55     -3.29   -2.74  SiO2
  Sklodowskite     -0.25     13.55   13.79  Mg(H3O)2(UO2)2(SiO4)2:4H2O
  Smectite-high-Fe-Mg   4.81     22.08   17.27  Ca.025Na.1K.2Fe.5Fe.2Mg1.15Al1.25Si3.5H2O12
  Smectite-low-Fe-Mg   5.09     15.98   10.89  Ca.02Na.15K.2Fe.29Fe.16Mg.9Al1.25Si3.75H2O12
  SO2(g)          -28.02    -27.85    0.18  SO2
  Soddyite          3.65      4.05    0.39  (UO2)2SiO4:2H2O
  Spinel           -6.38     31.23   37.61  Al2MgO4
  Starkeyite       -6.53     -7.53   -1.00  MgSO4:4H2O
  Stilbite         10.97     11.78    0.81  Ca1.019Na.136K.006Al2.18Si6.82O18:7.33H2O
  Sylvite          -9.19     -8.37    0.83  KCl
  Syngenite       -12.05    -19.65   -7.60  K2Ca(SO4)2:H2O
  Tachyhydrite    -51.95    -34.81   17.14  Mg2CaCl6:12H2O
  Talc              4.22     25.20   20.99  Mg3Si4O10(OH)2
  Thenardite       -9.91    -10.27   -0.36  Na2SO4
  Thermonatrite   -11.72     -0.78   10.94  Na2CO3:H2O
  Tobermorite-11A -19.21     46.18   65.39  Ca5Si6H11O22.5
  Tobermorite-14A -17.43     46.18   63.61  Ca5Si6H21O27.5
  Tobermorite-9A  -22.67     46.18   68.86  Ca5Si6H6O20
  Tremolite         3.06     63.99   60.93  Ca2Mg5Si8O22(OH)2
  Tridymite         0.55     -3.29   -3.84  SiO2
  Troilite        -24.76    -28.60   -3.84  FeS
  Trona-K         -20.43     -8.84   11.59  K2NaH(CO3)2:2H2O
  U              -119.16     93.60  212.77  U
  U(g)           -204.72     93.60  298.32  U
  UCl2(g)        -144.65     39.10  183.74  UCl2
  UCl6           -127.40    -69.91   57.50  UCl6
  UCl6(g)        -133.28    -69.91   63.37  UCl6
  UO(g)          -148.02     63.63  211.65  UO
  UO2(g)          -91.95     33.65  125.60  UO2
  UO2(OH)2(beta)   -1.28      3.67    4.95  UO2(OH)2
  UO2Cl2          -32.97    -20.86   12.11  UO2Cl2
  UO2Cl2(g)       -68.79    -20.86   47.93  UO2Cl2
  UO2Cl2:3H2O     -26.47    -20.86    5.61  UO2Cl2:3H2O
  UO2Cl2:H2O      -29.14    -20.86    8.28  UO2Cl2:H2O
  UO2ClOH:2H2O    -10.90     -8.59    2.30  UO2ClOH:2H2O
  UO2CO3           -3.03     -7.16   -4.13  UO2CO3
  UO2SO3          -17.30    -33.29  -15.99  UO2SO3
  UO2SO4          -18.58    -16.65    1.93  UO2SO4
  UO2SO4:2.5H2O   -15.15    -16.65   -1.50  UO2SO4:2.5H2O
  UO2SO4:3.5H2O   -15.16    -16.65   -1.49  UO2SO4:3.5H2O
  UO2SO4:3H2O     -15.24    -16.65   -1.41  UO2SO4:3H2O
  UO2SO4:H2O      -10.58    -16.65   -6.07  UO2SO4:H2O
  UO3(alpha)       -4.97      3.67    8.64  UO3
  UO3(beta)        -4.64      3.67    8.31  UO3
  UO3(g)          -67.28      3.67   70.95  UO3
  UO3(gamma)       -4.04      3.67    7.71  UO3
  UO3:.9H2O(alpha)  -1.35      3.67    5.02  UO3:.9H2O
  UO3:2H2O         -1.17      3.67    4.84  UO3:2H2O
  Uranophane       -3.34     13.94   17.29  Ca(UO2)2(SiO3)2(OH)2
  US3             -95.71   -112.40  -16.69  US3
  Wairakite         0.53     18.45   17.92  CaAl2Si4O10(OH)4
  Weeksite        -20.00     -4.62   15.38  K2(UO2)2(Si2O5)3:4H2O
  Wollastonite     -3.83      9.90   13.72  CaSiO3
  Wustite          -3.54      8.86   12.40  Fe.947O
  Xonotlite       -32.37     59.37   91.74  Ca6Si6O17(OH)2
  Zoisite           1.01     44.15   43.14  Ca2Al3(SiO4)3OH

**For a gas, SI = log10(fugacity). Fugacity = pressure * phi / 1 atm.
  For ideal gases, phi = 1.

------------------
End of simulation.
------------------

------------------------------------
Reading input data for simulation 5.
------------------------------------

	PHASES 
	     Fix_H+ 
	     H+ = H+ 
	     log_k  0.0 		#pseudo-
	END 
------------------
End of simulation.
------------------

------------------------------------
Reading input data for simulation 6.
------------------------------------

	USE SURFACE 1
	USE SOLUTION 1
	EQUILIBRIUM_PHASES 1
		Fix_H+ -8.7109375 NaOH 11.0 			
	END
-----------------------------------------
Beginning of batch-reaction calculations.
-----------------------------------------

Reaction step 1.

Using solution 1.	SGW2
Using surface 1.	
Using pure phase assemblage 1.	

-------------------------------Phase assemblage--------------------------------

                                                      Moles in assemblage
Phase               SI  log IAP  log K(T, P)   Initial       Final       Delta

Fix_H+           -8.71    -8.71      0.00
	 NaOH               is reactant       1.100e+01   1.100e+01  -1.571e-04

------------------------------Surface composition------------------------------

Diffuse Double Layer Surface-Complexation Model

Surf          
	 -2.485e-07  Surface charge, eq
	 -5.481e-03  sigma, C/m²
	 -3.330e-02  psi, V
	  1.296e+00  -F*psi/RT
	  3.655e+00  exp(-F*psi/RT)
	  3.500e-01  specific area, m²/g
	  4.375e+00  m² for   1.250e+01 g


Surf_         
	  1.678e-05  moles
	                                   Mole                     Log
	Species               Moles    Fraction    Molality    Molality

	Surf_OH           1.280e-05       0.763   1.280e-05      -4.893
	Surf_O-           2.115e-06       0.126   2.115e-06      -5.675
	Surf_OH2+         1.775e-06       0.106   1.775e-06      -5.751
	Surf_OUO2+        9.111e-08       0.005   9.111e-08      -7.040

-----------------------------Solution composition------------------------------

	Elements           Molality       Moles

	Al                3.707e-06   3.707e-06
	C                 2.688e-03   2.688e-03
	Ca                8.636e-04   8.636e-04
	Cl                9.311e-05   9.311e-05
	Fe                1.791e-06   1.791e-06
	K                 5.373e-05   5.373e-05
	Mg                3.416e-04   3.416e-04
	Na                8.750e-04   8.750e-04
	S                 1.807e-04   1.807e-04
	Si                5.195e-04   5.195e-04
	U                 1.902e-05   1.902e-05

----------------------------Description of solution----------------------------

                                       pH  =   8.711      Charge balance
                                       pe  =  -1.294      Adjusted to redox equilibrium
                        Activity of water  =   1.000
                 Ionic strength (mol/kgw)  =   4.519e-03
                       Mass of water (kg)  =   1.000e+00
                 Total alkalinity (eq/kg)  =   2.937e-03
                       Total CO2 (mol/kg)  =   2.688e-03
                         Temperature (°C)  =  25.00
                  Electrical balance (eq)  =   2.485e-07
 Percent error, 100*(Cat-|An|)/(Cat+|An|)  =   0.00
                               Iterations  =   8
                                  Total H  = 1.110534e+02
                                  Total O  = 5.553533e+01

----------------------------Distribution of species----------------------------

                                               Log       Log       Log    mole V
   Species          Molality    Activity  Molality  Activity     Gamma    cm³/mol

   OH-             5.327e-06   4.952e-06    -5.274    -5.305    -0.032     (0)  
   H+              2.078e-09   1.946e-09    -8.682    -8.711    -0.028      0.00
   H2O             5.553e+01   9.999e-01     1.744    -0.000     0.000     (0)  
Al            3.707e-06
   AlO2-           3.687e-06   3.430e-06    -5.433    -5.465    -0.031     (0)  
   HAlO2           1.948e-08   1.948e-08    -7.710    -7.710     0.000     (0)  
   NaAlO2          5.298e-10   5.298e-10    -9.276    -9.276     0.000     (0)  
   Al(OH)2+        2.800e-11   2.605e-11   -10.553   -10.584    -0.031     (0)  
   AlOH+2          2.910e-14   2.183e-14   -13.536   -13.661    -0.125     (0)  
   Al+3            6.865e-18   3.791e-18   -17.163   -17.421    -0.258     (0)  
   AlSO4+          5.050e-19   4.698e-19   -18.297   -18.328    -0.031     (0)  
   Al(SO4)2-       4.748e-21   4.417e-21   -20.324   -20.355    -0.031     (0)  
   Al2(OH)2+4      2.395e-25   7.746e-26   -24.621   -25.111    -0.490     (0)  
   Al3(OH)4+5      2.872e-31   5.006e-32   -30.542   -31.300    -0.759     (0)  
   Al13O4(OH)24+7   0.000e+00   0.000e+00   -44.970   -46.457    -1.487     (0)  
C(-2)         0.000e+00
   C2H4            0.000e+00   0.000e+00  -108.143  -108.143     0.000     (0)  
C(-3)         0.000e+00
   C2H6            0.000e+00   0.000e+00   -75.644   -75.644     0.000     (0)  
C(-4)         0.000e+00
   CH4             0.000e+00   0.000e+00   -42.791   -42.791     0.000     (0)  
C(2)          1.367e-25
   CO              1.367e-25   1.367e-25   -24.864   -24.864     0.000     (0)  
C(4)          2.688e-03
   HCO3-           2.445e-03   2.274e-03    -2.612    -2.643    -0.031     (0)  
   CaCO3           6.971e-05   6.971e-05    -4.157    -4.157     0.000     (0)  
   CO3-2           6.914e-05   5.186e-05    -4.160    -4.285    -0.125     (0)  
   CaHCO3+         1.680e-05   1.563e-05    -4.775    -4.806    -0.031     (0)  
   UO2(CO3)3-4     1.578e-05   4.930e-06    -4.802    -5.307    -0.505     (0)  
   MgCO3           1.316e-05   1.316e-05    -4.881    -4.881     0.000     (0)  
   CO2             1.025e-05   1.027e-05    -4.989    -4.989     0.000     (0)  
   MgHCO3+         6.812e-06   6.337e-06    -5.167    -5.198    -0.031     (0)  
   UO2(CO3)2-2     2.825e-06   2.113e-06    -5.549    -5.675    -0.126     (0)  
   NaHCO3          2.634e-06   2.634e-06    -5.579    -5.579     0.000     (0)  
   FeCO3           8.113e-07   8.113e-07    -6.091    -6.091     0.000     (0)  
   FeHCO3+         3.536e-07   3.289e-07    -6.452    -6.483    -0.031     (0)  
   NaCO3-          1.579e-07   1.469e-07    -6.801    -6.833    -0.031     (0)  
   (UO2)2CO3(OH)3-   6.761e-08   6.290e-08    -7.170    -7.201    -0.031     (0)  
   UO2CO3          2.118e-09   2.118e-09    -8.674    -8.674     0.000     (0)  
   (UO2)3(CO3)6-6   1.840e-13   1.343e-14   -12.735   -13.872    -1.137     (0)  
   FeCO3+          4.323e-16   4.021e-16   -15.364   -15.396    -0.031     (0)  
   UO2(CO3)3-5     1.133e-16   1.839e-17   -15.946   -16.735    -0.789     (0)  
   U(CO3)4-4       1.691e-19   5.283e-20   -18.772   -19.277    -0.505     (0)  
   (UO2)3(OH)5CO2+   2.208e-20   2.054e-20   -19.656   -19.687    -0.031     (0)  
   (UO2)3O(OH)2(HCO3)+   1.780e-20   1.656e-20   -19.749   -19.781    -0.031     (0)  
   U(CO3)5-6       3.103e-24   2.264e-25   -23.508   -24.645    -1.137     (0)  
   (UO2)11(CO3)6(OH)12-2   2.212e-40   1.654e-40   -39.655   -39.781    -0.126     (0)  
Ca            8.636e-04
   Ca+2            7.667e-04   5.800e-04    -3.115    -3.237    -0.121     (0)  
   CaCO3           6.971e-05   6.971e-05    -4.157    -4.157     0.000     (0)  
   CaHCO3+         1.680e-05   1.563e-05    -4.775    -4.806    -0.031     (0)  
   CaSO4           1.026e-05   1.026e-05    -4.989    -4.989     0.000     (0)  
   CaOH+           4.526e-08   4.210e-08    -7.344    -7.376    -0.031     (0)  
   CaCl+           1.142e-08   1.063e-08    -7.942    -7.974    -0.031     (0)  
   CaCl2           1.080e-12   1.080e-12   -11.966   -11.966     0.000     (0)  
Cl(-1)        9.311e-05
   Cl-             9.307e-05   8.645e-05    -4.031    -4.063    -0.032     (0)  
   MgCl+           1.740e-08   1.619e-08    -7.759    -7.791    -0.031     (0)  
   NaCl            1.230e-08   1.230e-08    -7.910    -7.910     0.000     (0)  
   CaCl+           1.142e-08   1.063e-08    -7.942    -7.974    -0.031     (0)  
   KCl             1.447e-10   1.447e-10    -9.839    -9.839     0.000     (0)  
   FeCl+           1.865e-11   1.735e-11   -10.729   -10.761    -0.031     (0)  
   CaCl2           1.080e-12   1.080e-12   -11.966   -11.966     0.000     (0)  
   HCl             3.778e-14   3.778e-14   -13.423   -13.423     0.000     (0)  
   FeCl2           8.049e-18   8.049e-18   -17.094   -17.094     0.000     (0)  
   UO2Cl+          1.125e-18   1.047e-18   -17.949   -17.980    -0.031     (0)  
   UO2Cl2          4.631e-24   4.631e-24   -23.334   -23.334     0.000     (0)  
   FeCl4-2         2.324e-25   1.738e-25   -24.634   -24.760    -0.126     (0)  
   FeCl+2          2.578e-26   1.934e-26   -25.589   -25.714    -0.125     (0)  
   FeCl2+          1.455e-27   1.353e-27   -26.837   -26.869    -0.031     (0)  
   FeCl4-          1.307e-38   1.216e-38   -37.884   -37.915    -0.031     (0)  
   UCl+3           4.341e-40   2.287e-40   -39.362   -39.641    -0.278     (0)  
Cl(1)         0.000e+00
   ClO-            0.000e+00   0.000e+00   -47.307   -47.338    -0.031     (0)  
   HClO            0.000e+00   0.000e+00   -48.480   -48.480     0.000     (0)  
Cl(3)         0.000e+00
   ClO2-           0.000e+00   0.000e+00   -83.476   -83.507    -0.031     (0)  
   HClO2           0.000e+00   0.000e+00   -89.048   -89.048     0.000     (0)  
Cl(5)         0.000e+00
   ClO3-           0.000e+00   0.000e+00  -105.792  -105.824    -0.032     (0)  
   UO2ClO3+        0.000e+00   0.000e+00  -119.376  -119.408    -0.031     (0)  
Cl(7)         0.000e+00
   ClO4-           0.000e+00   0.000e+00  -132.411  -132.443    -0.032     (0)  
Fe(2)         1.583e-06
   FeCO3           8.113e-07   8.113e-07    -6.091    -6.091     0.000     (0)  
   Fe+2            3.643e-07   2.755e-07    -6.439    -6.560    -0.121     (0)  
   FeHCO3+         3.536e-07   3.289e-07    -6.452    -6.483    -0.031     (0)  
   FeOH+           4.814e-08   4.478e-08    -7.318    -7.349    -0.031     (0)  
   FeSO4           5.289e-09   5.289e-09    -8.277    -8.277     0.000     (0)  
   Fe(OH)2         1.828e-10   1.828e-10    -9.738    -9.738     0.000     (0)  
   FeCl+           1.865e-11   1.735e-11   -10.729   -10.761    -0.031     (0)  
   Fe(OH)3-        4.021e-12   3.740e-12   -11.396   -11.427    -0.031     (0)  
   FeCl2           8.049e-18   8.049e-18   -17.094   -17.094     0.000     (0)  
   Fe(OH)4-2       2.570e-18   1.922e-18   -17.590   -17.716    -0.126     (0)  
   FeCl4-2         2.324e-25   1.738e-25   -24.634   -24.760    -0.126     (0)  
Fe(3)         2.083e-07
   Fe(OH)3         1.822e-07   1.822e-07    -6.739    -6.739     0.000     (0)  
   Fe(OH)4-        2.529e-08   2.352e-08    -7.597    -7.629    -0.031     (0)  
   Fe(OH)2+        8.149e-10   7.581e-10    -9.089    -9.120    -0.031     (0)  
   FeOH+2          5.939e-15   4.455e-15   -14.226   -14.351    -0.125     (0)  
   FeCO3+          4.323e-16   4.021e-16   -15.364   -15.396    -0.031     (0)  
   Fe+3            2.431e-21   1.342e-21   -20.614   -20.872    -0.258     (0)  
   FeSO4+          1.691e-23   1.573e-23   -22.772   -22.803    -0.031     (0)  
   Fe(SO4)2-       3.462e-26   3.221e-26   -25.461   -25.492    -0.031     (0)  
   FeCl+2          2.578e-26   1.934e-26   -25.589   -25.714    -0.125     (0)  
   Fe2(OH)2+4      1.652e-27   5.341e-28   -26.782   -27.272    -0.490     (0)  
   FeCl2+          1.455e-27   1.353e-27   -26.837   -26.869    -0.031     (0)  
   Fe3(OH)4+5      4.853e-34   8.459e-35   -33.314   -34.073    -0.759     (0)  
   FeCl4-          1.307e-38   1.216e-38   -37.884   -37.915    -0.031     (0)  
H(0)          2.324e-18
   H2              1.162e-18   1.163e-18   -17.935   -17.934     0.000     (0)  
K             5.373e-05
   K+              5.367e-05   4.985e-05    -4.270    -4.302    -0.032     (0)  
   KSO4-           5.239e-08   4.873e-08    -7.281    -7.312    -0.031     (0)  
   KCl             1.447e-10   1.447e-10    -9.839    -9.839     0.000     (0)  
   KOH             8.884e-11   8.884e-11   -10.051   -10.051     0.000     (0)  
   KHSO4           8.366e-17   8.366e-17   -16.077   -16.077     0.000     (0)  
Mg            3.416e-04
   Mg+2            3.138e-04   2.399e-04    -3.503    -3.620    -0.117     (0)  
   MgCO3           1.316e-05   1.316e-05    -4.881    -4.881     0.000     (0)  
   MgSO4           7.759e-06   7.759e-06    -5.110    -5.110     0.000     (0)  
   MgHCO3+         6.812e-06   6.337e-06    -5.167    -5.198    -0.031     (0)  
   MgCl+           1.740e-08   1.619e-08    -7.759    -7.791    -0.031     (0)  
   Mg4(OH)4+4      1.271e-19   4.109e-20   -18.896   -19.386    -0.490     (0)  
Na            8.750e-04
   Na+             8.704e-04   8.097e-04    -3.060    -3.092    -0.031     (0)  
   NaHCO3          2.634e-06   2.634e-06    -5.579    -5.579     0.000     (0)  
   NaHSiO3         1.092e-06   1.092e-06    -5.962    -5.962     0.000     (0)  
   NaSO4-          6.965e-07   6.479e-07    -6.157    -6.189    -0.031     (0)  
   NaCO3-          1.579e-07   1.469e-07    -6.801    -6.833    -0.031     (0)  
   NaCl            1.230e-08   1.230e-08    -7.910    -7.910     0.000     (0)  
   NaOH            6.917e-10   6.917e-10    -9.160    -9.160     0.000     (0)  
   NaAlO2          5.298e-10   5.298e-10    -9.276    -9.276     0.000     (0)  
O(0)          0.000e+00
   O2              0.000e+00   0.000e+00   -56.328   -56.327     0.000     (0)  
S(-2)         6.084e-39
   HS-             5.973e-39   5.552e-39   -38.224   -38.256    -0.032     (0)  
   H2S             1.104e-40   1.104e-40   -39.957   -39.957     0.000     (0)  
   S-2             0.000e+00   0.000e+00   -42.347   -42.471    -0.124     (0)  
   S2-2            0.000e+00   0.000e+00   -71.291   -71.417    -0.126     (0)  
   S3-2            0.000e+00   0.000e+00  -100.279  -100.405    -0.126     (0)  
   S4-2            0.000e+00   0.000e+00  -129.494  -129.620    -0.126     (0)  
   S5-2            0.000e+00   0.000e+00  -158.925  -159.052    -0.126     (0)  
S(2)          0.000e+00
   S2O3-2          0.000e+00   0.000e+00   -45.948   -46.074    -0.126     (0)  
   HS2O3-          0.000e+00   0.000e+00   -53.740   -53.771    -0.031     (0)  
   UO2S2O3         0.000e+00   0.000e+00   -57.940   -57.940     0.000     (0)  
S(3)          0.000e+00
   S2O4-2          0.000e+00   0.000e+00   -59.043   -59.166    -0.124     (0)  
S(4)          5.826e-23
   SO3-2           5.674e-23   4.256e-23   -22.246   -22.371    -0.125     (0)  
   HSO3-           1.517e-24   1.412e-24   -23.819   -23.850    -0.031     (0)  
   UO2SO3          1.962e-30   1.962e-30   -29.707   -29.707     0.000     (0)  
   H2SO3           2.632e-31   2.632e-31   -30.580   -30.580     0.000     (0)  
   SO2             2.090e-31   2.090e-31   -30.680   -30.680     0.000     (0)  
   S2O6-2          0.000e+00   0.000e+00   -48.334   -48.460    -0.126     (0)  
   UO2(SO3)2-2     0.000e+00   0.000e+00   -50.795   -50.921    -0.126     (0)  
   S3O6-2          0.000e+00   0.000e+00   -79.805   -79.931    -0.126     (0)  
   S4O6-2          0.000e+00   0.000e+00   -95.370   -95.496    -0.126     (0)  
   S5O6-2          0.000e+00   0.000e+00  -139.814  -139.941    -0.126     (0)  
S(5)          0.000e+00
   S2O5-2          0.000e+00   0.000e+00   -52.405   -52.531    -0.126     (0)  
S(6)          1.807e-04
   SO4-2           1.619e-04   1.211e-04    -3.791    -3.917    -0.126     (0)  
   CaSO4           1.026e-05   1.026e-05    -4.989    -4.989     0.000     (0)  
   MgSO4           7.759e-06   7.759e-06    -5.110    -5.110     0.000     (0)  
   NaSO4-          6.965e-07   6.479e-07    -6.157    -6.189    -0.031     (0)  
   KSO4-           5.239e-08   4.873e-08    -7.281    -7.312    -0.031     (0)  
   FeSO4           5.289e-09   5.289e-09    -8.277    -8.277     0.000     (0)  
   HSO4-           2.559e-11   2.380e-11   -10.592   -10.623    -0.031     (0)  
   UO2SO4          1.198e-15   1.198e-15   -14.921   -14.921     0.000     (0)  
   KHSO4           8.366e-17   8.366e-17   -16.077   -16.077     0.000     (0)  
   UO2(SO4)2-2     1.719e-18   1.286e-18   -17.765   -17.891    -0.126     (0)  
   AlSO4+          5.050e-19   4.698e-19   -18.297   -18.328    -0.031     (0)  
   Al(SO4)2-       4.748e-21   4.417e-21   -20.324   -20.355    -0.031     (0)  
   H2SO4           4.369e-23   4.369e-23   -22.360   -22.360     0.000     (0)  
   FeSO4+          1.691e-23   1.573e-23   -22.772   -22.803    -0.031     (0)  
   Fe(SO4)2-       3.462e-26   3.221e-26   -25.461   -25.492    -0.031     (0)  
   USO4+2          2.804e-35   2.103e-35   -34.552   -34.677    -0.125     (0)  
   U(SO4)2         1.760e-35   1.760e-35   -34.755   -34.755     0.000     (0)  
S(7)          0.000e+00
   S2O8-2          0.000e+00   0.000e+00   -75.748   -75.874    -0.126     (0)  
S(8)          0.000e+00
   HSO5-           0.000e+00   0.000e+00   -58.021   -58.052    -0.031     (0)  
Si            5.195e-04
   SiO2            4.876e-04   4.876e-04    -3.312    -3.312     0.000     (0)  
   HSiO3-          3.077e-05   2.863e-05    -4.512    -4.543    -0.031     (0)  
   NaHSiO3         1.092e-06   1.092e-06    -5.962    -5.962     0.000     (0)  
   H2SiO4-2        1.888e-09   1.412e-09    -8.724    -8.850    -0.126     (0)  
   H6(H2SiO4)4-2   4.572e-10   3.420e-10    -9.340    -9.466    -0.126     (0)  
   H4(H2SiO4)4-4   1.449e-14   4.527e-15   -13.839   -14.344    -0.505     (0)  
U(3)          0.000e+00
   U+3             0.000e+00   0.000e+00   -45.072   -45.351    -0.278     (0)  
U(4)          1.021e-07
   U(OH)4          1.021e-07   1.021e-07    -6.991    -6.991     0.000     (0)  
   U(CO3)4-4       1.691e-19   5.283e-20   -18.772   -19.277    -0.505     (0)  
   U(CO3)5-6       3.103e-24   2.264e-25   -23.508   -24.645    -1.137     (0)  
   UOH+3           1.408e-29   7.414e-30   -28.852   -29.130    -0.278     (0)  
   USO4+2          2.804e-35   2.103e-35   -34.552   -34.677    -0.125     (0)  
   U(SO4)2         1.760e-35   1.760e-35   -34.755   -34.755     0.000     (0)  
   U+4             1.568e-37   5.070e-38   -36.805   -37.295    -0.490     (0)  
   UCl+3           4.341e-40   2.287e-40   -39.362   -39.641    -0.278     (0)  
U(5)          5.208e-12
   UO2+            5.208e-12   4.845e-12   -11.283   -11.315    -0.031     (0)  
   UO2(CO3)3-5     1.133e-16   1.839e-17   -15.946   -16.735    -0.789     (0)  
U(6)          1.892e-05
   UO2(CO3)3-4     1.578e-05   4.930e-06    -4.802    -5.307    -0.505     (0)  
   UO2(CO3)2-2     2.825e-06   2.113e-06    -5.549    -5.675    -0.126     (0)  
   UO2(OH)2        1.042e-07   1.042e-07    -6.982    -6.982     0.000     (0)  
   UO2(OH)3-       7.125e-08   6.628e-08    -7.147    -7.179    -0.031     (0)  
   (UO2)2CO3(OH)3-   6.761e-08   6.290e-08    -7.170    -7.201    -0.031     (0)  
   UO2CO3          2.118e-09   2.118e-09    -8.674    -8.674     0.000     (0)  
   UO2OH+          2.783e-11   2.589e-11   -10.556   -10.587    -0.031     (0)  
   UO2(OH)4-2      7.098e-13   5.309e-13   -12.149   -12.275    -0.126     (0)  
   (UO2)3(OH)7-    4.880e-13   4.540e-13   -12.312   -12.343    -0.031     (0)  
   (UO2)3(CO3)6-6   1.840e-13   1.343e-14   -12.735   -13.872    -1.137     (0)  
   UO2+2           1.085e-14   8.138e-15   -13.965   -14.089    -0.125     (0)  
   (UO2)3(OH)5+    5.291e-15   4.922e-15   -14.276   -14.308    -0.031     (0)  
   UO2SO4          1.198e-15   1.198e-15   -14.921   -14.921     0.000     (0)  
   (UO2)2(OH)2+2   5.422e-17   4.067e-17   -16.266   -16.391    -0.125     (0)  
   (UO2)4(OH)7+    4.999e-18   4.651e-18   -17.301   -17.332    -0.031     (0)  
   UO2(SO4)2-2     1.719e-18   1.286e-18   -17.765   -17.891    -0.126     (0)  
   UO2Cl+          1.125e-18   1.047e-18   -17.949   -17.980    -0.031     (0)  
   (UO2)3(OH)4+2   5.902e-20   4.427e-20   -19.229   -19.354    -0.125     (0)  
   (UO2)3(OH)5CO2+   2.208e-20   2.054e-20   -19.656   -19.687    -0.031     (0)  
   (UO2)3O(OH)2(HCO3)+   1.780e-20   1.656e-20   -19.749   -19.781    -0.031     (0)  
   (UO2)2OH+3      1.268e-22   6.679e-23   -21.897   -22.175    -0.278     (0)  
   UO2Cl2          4.631e-24   4.631e-24   -23.334   -23.334     0.000     (0)  
   UO2SO3          1.962e-30   1.962e-30   -29.707   -29.707     0.000     (0)  
   (UO2)11(CO3)6(OH)12-2   2.212e-40   1.654e-40   -39.655   -39.781    -0.126     (0)  
   UO2(SO3)2-2     0.000e+00   0.000e+00   -50.795   -50.921    -0.126     (0)  
   UO2S2O3         0.000e+00   0.000e+00   -57.940   -57.940     0.000     (0)  
   UO2ClO3+        0.000e+00   0.000e+00  -119.376  -119.408    -0.031     (0)  

------------------------------Saturation indices-------------------------------

  Phase               SI** log IAP   log K(298 K,   1 atm)

  (UO2)2Cl3       -50.27    -37.59   12.68  (UO2)2Cl3
  Afwillite       -24.03     35.93   59.96  Ca3Si2O4(OH)6
  Akermanite       -9.68     35.55   45.23  Ca2MgSi2O7
  Al              -98.96     50.96  149.91  Al
  Al(g)          -149.66     50.96  200.62  Al
  Al2(SO4)3       -65.49    -46.59   18.90  Al2(SO4)3
  Al2(SO4)3:6H2O  -48.15    -46.59    1.56  Al2(SO4)3:6H2O
  Albite            1.74      4.40    2.66  NaAlSi3O8
  Albite_high       0.42      4.40    3.98  NaAlSi3O8
  Albite_low        1.74      4.40    2.66  NaAlSi3O8
  Alum-K          -24.59    -29.56   -4.97  KAl(SO4)2:12H2O
  Alunite         -11.66    -12.13   -0.47  KAl3(OH)6(SO4)2
  Amesite-14A       8.16     83.43   75.27  Mg4Al4Si2O10(OH)8
  Analcime          0.94      7.00    6.06  Na.96Al.96Si2.04O6:H2O
  Analcime-dehy    -5.42      7.00   12.42  Na.96Al.96Si2.04O6
  Andalusite       -1.77     14.11   15.88  Al2SiO5
  Andradite         9.95     43.14   33.19  Ca3Fe2(SiO4)3
  Anhydrite        -2.80     -7.15   -4.35  CaSO4
  Annite            6.44     35.77   29.33  KFe3AlSi3O10(OH)2
  Anorthite        -1.49     24.98   26.48  CaAl2(SiO4)2
  Antarcticite    -15.46    -11.36    4.09  CaCl2:6H2O
  Anthophyllite     3.64     70.12   66.48  Mg7Si8O22(OH)2
  Antigorite       74.25    549.88  475.63  Mg48Si34O85(OH)62
  Aphthitalite    -19.94    -23.83   -3.89  NaK3(SO4)2
  Aragonite         0.86      2.83    1.97  CaCO3
  Arcanite        -10.68    -12.52   -1.84  K2SO4
  Artinite         -3.38     16.25   19.63  Mg2CO3(OH)2:3H2O
  Bassanite        -3.45     -7.15   -3.71  CaSO4:0.5H2O
  Beidellite-Ca     5.04     10.48    5.44  Ca.165Al2.33Si3.67O10(OH)2
  Beidellite-H      3.65      8.14    4.49  H.33Al2.33Si3.67O10(OH)2
  Beidellite-K      4.44      9.60    5.16  K.33Al2.33Si3.67O10(OH)2
  Beidellite-Mg     5.01     10.42    5.41  Mg.165Al2.33Si3.67O10(OH)2
  Beidellite-Na     4.50     10.00    5.50  Na.33Al2.33Si3.67O10(OH)2
  Bischofite      -16.14    -11.75    4.39  MgCl2:6H2O
  Bloedite        -15.16    -17.64   -2.48  Na2Mg(SO4)2:4H2O
  Boehmite          1.16      8.71    7.55  AlO2H
  Boltwoodite     -10.46      4.43   14.89  K(H3O)(UO2)SiO4
  Boltwoodite-Na   -9.31      5.28   14.58  Na.7K.3(H3O)(UO2)SiO4:H2O
  Brucite          -2.48     13.80   16.28  Mg(OH)2
  Burkeite        -29.80    -20.32    9.49  Na6CO3(SO4)2
  C               -19.17     44.97   64.15  C
  C(g)           -136.79     44.97  181.77  C
  Ca              -97.48     42.35  139.83  Ca
  Ca(g)          -122.72     42.35  165.07  Ca
  Ca-Al_Pyroxene   -7.61     28.30   35.90  CaAl2SiO6
  Ca2Al2O5:8H2O   -13.78     45.79   59.57  Ca2Al2O5:8H2O
  Ca2Cl2(OH)2:H2O -23.47      2.82   26.29  Ca2Cl2(OH)2:H2O
  Ca3Al2O6        -53.05     59.98  113.03  Ca3Al2O6
  Ca4Al2Fe2O10    -55.80     84.69  140.48  Ca4Al2Fe2O10
  Ca4Al2O7:13H2O  -33.09     74.16  107.25  Ca4Al2O7:13H2O
  Ca4Al2O7:19H2O  -29.52     74.16  103.68  Ca4Al2O7:19H2O
  Ca4Cl2(OH)6:13H2O -37.14     31.19   68.33  Ca4Cl2(OH)6:13H2O
  CaAl2O4         -15.30     31.61   46.91  CaAl2O4
  CaAl2O4:10H2O    -6.39     31.61   37.99  CaAl2O4:10H2O
  CaAl4O7         -19.56     49.03   68.59  CaAl4O7
  Calcite           1.01      2.83    1.82  CaCO3
  Carnallite      -24.38    -20.11    4.27  KMgCl3:6H2O
  CaSO4:0.5H2O(beta)  -3.62     -7.15   -3.54  CaSO4:0.5H2O
  CaUO4             1.58     17.52   15.94  CaUO4
  Celadonite        6.36     13.67    7.31  KMgAlSi4O10(OH)2
  CH4(g)          -39.95    -42.79   -2.84  CH4
  Chalcedony        0.44     -3.31   -3.76  SiO2
  Chamosite-7A      3.08     35.84   32.76  Fe2Al2SiO5(OH)4
  Chloromagnesite -33.56    -11.75   21.82  MgCl2
  Chrysotile        3.75     34.78   31.03  Mg3Si2O5(OH)4
  Cl2(g)          -56.71    -53.71    2.99  Cl2
  Clinochlore-14A   9.45     76.50   67.05  Mg5Al2Si3O10(OH)8
  Clinochlore-7A    6.07     76.50   70.42  Mg5Al2Si3O10(OH)8
  Clinoptilolite-Ca  14.12      6.60   -7.52  Ca1.7335Al3.45Fe.017Si14.533O36:10.922H2O
  Clinoptilolite-dehy-Ca -21.54      6.60   28.14  Ca1.7335Al3.45Fe.017Si14.533O36
  Clinoptilolite-dehy-K -26.91     -2.70   24.20  K3.467Al3.45Fe.017Si14.533O36
  Clinoptilolite-dehy-Na -26.51      1.49   28.01  Na3.467Al3.45Fe.017Si14.533O36
  Clinoptilolite-hy-Ca  14.12      6.60   -7.52  Ca1.7335Al3.45Fe.017Si14.533O36:11.645H2O
  Clinoptilolite-hy-K   8.75     -2.70  -11.45  K3.467Al3.45Fe.017Si14.533O36:7.499H2O
  Clinoptilolite-hy-Na   9.14      1.49   -7.65  Na3.467Al3.45Fe.017Si14.533O36:10.877H2O
  Clinoptilolite-K   8.75     -2.70  -11.45  K3.467Al3.45Fe.017Si14.533O36:10.922H2O
  Clinoptilolite-Na   9.14      1.49   -7.64  Na3.467Al3.45Fe.017Si14.533O36:10.922H2O
  Clinozoisite      1.47     44.57   43.10  Ca2Al3Si3O12(OH)
  CO(g)           -21.87    -24.86   -3.00  CO
  CO2(g)           -3.53    -11.35   -7.83  CO2
  Coesite          -0.09     -3.31   -3.22  SiO2
  Coffinite         2.30     -5.76   -8.07  USiO4
  Cordierite_anhyd  -6.18     45.89   52.07  Mg2Al4Si5O18
  Cordierite_hydr  -3.70     45.89   49.59  Mg2Al4Si5O18:H2O
  Corundum         -0.87     17.42   18.29  Al2O3
  Cristobalite(alpha)   0.16     -3.31   -3.48  SiO2
  Cristobalite(beta)  -0.28     -3.31   -3.03  SiO2
  Cronstedtite-7A  12.76     28.93   16.18  Fe2Fe2SiO5(OH)4
  Daphnite-14A      9.70     61.80   52.10  Fe5AlAlSi3O10(OH)8
  Daphnite-7A       6.32     61.80   55.48  Fe5AlAlSi3O10(OH)8
  Dawsonite        -1.36      2.98    4.34  NaAlCO3(OH)2
  Diaspore          1.57      8.71    7.15  AlHO2
  Dicalcium_silicate -12.07     25.06   37.13  Ca2SiO4
  Diopside          0.48     21.36   20.89  CaMgSi2O6
  Dolomite          2.81      5.28    2.47  CaMg(CO3)2
  Dolomite-dis      1.27      5.28    4.01  CaMg(CO3)2
  Dolomite-ord      2.81      5.28    2.46  CaMg(CO3)2
  Enstatite        -0.80     10.49   11.29  MgSiO3
  Epidote           8.34     41.12   32.77  Ca2FeAl2Si3O12OH
  Epidote-ord       8.35     41.12   32.76  FeCa2Al2(OH)(SiO4)3
  Epsomite         -5.57     -7.54   -1.96  MgSO4:7H2O
  Ettringite      -23.95     38.52   62.46  Ca6Al2(SO4)3(OH)12:26H2O
  Fayalite         -0.65     18.41   19.06  Fe2SiO4
  Fe              -19.99     39.03   59.02  Fe
  Fe(OH)2          -3.03     10.86   13.89  Fe(OH)2
  Fe(OH)3          -0.38      5.26    5.64  Fe(OH)3
  Fe2(SO4)3       -56.54    -53.49    3.05  Fe2(SO4)3
  FeO              -2.66     10.86   13.52  FeO
  Ferrite-Ca        3.21     24.71   21.50  CaFe2O4
  Ferrite-Dicalcium -17.91     38.89   56.80  Ca2Fe2O5
  Ferrite-Mg        3.30     24.32   21.02  MgFe2O4
  Ferrosilite       0.14      7.55    7.41  FeSiO3
  FeSO4           -13.08    -10.48    2.61  FeSO4
  Fix_H+           -8.71     -8.71    0.00  H+
  Forsterite       -3.52     24.29   27.81  Mg2SiO4
  Foshagite       -18.99     46.81   65.80  Ca4Si3O9(OH)2:0.5H2O
  Gaylussite       -8.45      2.72   11.16  CaNa2(CO3)2:5H2O
  Gehlenite       -13.74     42.48   56.22  Ca2Al2SiO7
  Gibbsite          0.97      8.71    7.74  Al(OH)3
  Gismondine        8.25     49.97   41.72  Ca2Al4Si4O16:9H2O
  Glauberite      -11.78    -17.25   -5.47  Na2Ca(SO4)2
  Goethite          4.73      5.26    0.53  FeOOH
  Greenalite        3.38     25.96   22.58  Fe3Si2O5(OH)4
  Grossular        -1.73     50.04   51.78  Ca3Al2(SiO4)3
  Gypsum           -2.62     -7.15   -4.53  CaSO4:2H2O
  Gyrolite         -4.37     18.43   22.80  Ca2Si3O7(OH)2:1.5H2O
  H2(g)           -14.83    -17.93   -3.10  H2
  H2O(g)           -1.59     -0.00    1.59  H2O
  H2S(g)          -38.97    -46.97   -7.99  H2S
  Haiweeite         8.02      0.98   -7.04  Ca(UO2)2(Si2O5)3:5H2O
  Halite           -8.72     -7.15    1.56  NaCl
  Hatrurite       -34.11     39.24   73.35  Ca3SiO5
  HCl(g)          -19.08    -12.77    6.30  HCl
  Hedenbergite     -1.11     18.42   19.53  CaFe(SiO3)2
  Hematite         10.45     10.52    0.08  Fe2O3
  Hercynite        -0.52     28.29   28.80  FeAl2O4
  Hexahydrite      -5.81     -7.54   -1.73  MgSO4:6H2O
  Hillebrandite   -11.71     25.06   36.77  Ca2SiO3(OH)2:0.17H2O
  Huntite          -0.04     10.17   10.22  CaMg3(CO3)4
  Hydromagnesite   -7.15     23.59   30.74  Mg5(CO3)4(OH)2:4H2O
  Hydrophilite    -23.11    -11.36   11.75  CaCl2
  Ice              -0.14     -0.00    0.14  H2O
  Illite            5.66     14.54    8.88  K0.6Mg0.25Al1.8Al0.5Si3.5O10(OH)2
  Jadeite          -0.60      7.71    8.31  NaAl(SiO3)2
  Jarosite        -13.08    -22.49   -9.41  KFe3(SO4)2(OH)6
  Jarosite-Na     -15.83    -21.28   -5.45  NaFe3(SO4)2(OH)6
  K               -52.49     18.49   70.98  K
  K(g)            -63.09     18.49   81.58  K
  K-Feldspar        3.56      3.18   -0.38  KAlSi3O8
  K2CO3:1.5H2O    -15.92     -2.54   13.38  K2CO3:1.5H2O
  K2O             -75.22      8.82   84.04  K2O
  K2UO4           -21.72     12.15   33.87  K2UO4
  K3H(SO4)2       -25.83    -29.45   -3.62  K3H(SO4)2
  K8H4(CO3)6:3H2O -60.57    -32.86   27.71  K8H4(CO3)6:3H2O
  Kainite         -15.59    -15.90   -0.31  KMgClSO4:3H2O
  KAl(SO4)2       -32.83    -29.56    3.27  KAl(SO4)2
  Kalicinite       -7.23     -6.95    0.28  KHCO3
  Kalsilite        -1.04      9.81   10.85  KAlSiO4
  Kaolinite         4.08     10.80    6.72  Al2Si2O5(OH)4
  Katoite         -18.97     59.98   78.94  Ca3Al2H12O12
  Kieserite        -7.27     -7.54   -0.27  MgSO4:H2O
  KMgCl3          -41.36    -20.11   21.25  KMgCl3
  KMgCl3:2H2O     -34.07    -20.11   13.96  KMgCl3:2H2O
  KNaCO3:6H2O     -11.59     -1.33   10.26  KNaCO3:6H2O
  Kyanite          -1.50     14.11   15.61  Al2SiO5
  Lansfordite      -2.39      2.45    4.84  MgCO3:5H2O
  Larnite         -13.36     25.06   38.42  Ca2SiO4
  Laumontite        4.85     18.36   13.51  CaAl2Si4O12:4H2O
  Lawrencite      -23.74    -14.69    9.05  FeCl2
  Lawsonite         2.88     24.98   22.11  CaAl2Si2O7(OH)2:H2O
  Leonite         -15.95    -20.06   -4.11  K2Mg(SO4)2:4H2O
  Lime            -18.38     14.19   32.57  CaO
  Magnesite         0.17      2.45    2.27  MgCO3
  Magnetite        10.97     21.38   10.42  Fe3O4
  Margarite         1.48     42.41   40.93  CaAl4Si2O10(OH)2
  Maximum_Microcline   3.56      3.18   -0.38  KAlSi3O8
  Mayenite       -201.97    292.18  494.15  Ca12Al14O33
  Melanterite      -8.08    -10.48   -2.40  FeSO4:7H2O
  Mercallite      -15.49    -16.93   -1.44  KHSO4
  Merwinite       -18.68     49.73   68.41  MgCa3(SiO4)2
  Mesolite          7.00     20.49   13.49  Na.676Ca.657Al1.99Si3.01O10:2.647H2O
  Mg              -80.55     41.97  122.52  Mg
  Mg(g)          -100.28     41.97  142.25  Mg
  Mg1.25SO4(OH)0.5:0.5H2O  -9.28     -4.09    5.20  Mg1.25SO4(OH)0.5:0.5H2O
  Mg1.5SO4(OH)     -9.84     -0.64    9.21  Mg1.5SO4(OH)
  MgCl2:2H2O      -24.48    -11.75   12.73  MgCl2:2H2O
  MgCl2:4H2O      -19.05    -11.75    7.30  MgCl2:4H2O
  MgCl2:H2O       -27.82    -11.75   16.07  MgCl2:H2O
  MgOHCl          -14.86      1.03   15.89  MgOHCl
  MgSO4           -12.37     -7.54    4.83  MgSO4
  MgUO4            -5.86     17.13   22.99  MgUO4
  Minnesotaite      5.50     19.34   13.83  Fe3Si4O10(OH)2
  Mirabilite       -8.95    -10.10   -1.15  Na2SO4:10H2O
  Misenite       -103.03   -114.10  -11.08  K8H6(SO4)7
  Molysite        -46.53    -33.06   13.47  FeCl3
  Monohydrocalcite   0.15      2.83    2.68  CaCO3:H2O
  Monticellite     -4.86     24.68   29.53  CaMgSiO4
  Montmor-Ca        5.85      8.20    2.34  Ca.165Mg.33Al1.67Si4O10(OH)2
  Montmor-K         5.32      7.31    1.99  K.33Mg.33Al1.67Si4O10(OH)2
  Montmor-Mg        5.90      8.13    2.23  Mg.495Al1.67Si4O10(OH)2
  Montmor-Na        5.38      7.71    2.33  Na.33Mg.33Al1.67Si4O10(OH)2
  Mordenite         2.93     -2.43   -5.36  Ca.2895Na.361Al.94Si5.06O12:3.468H2O
  Mordenite-dehy  -12.20     -2.43    9.77  Ca.2895Na.361Al.94Si5.06O12
  Muscovite         7.16     20.61   13.45  KAl3Si3O10(OH)2
  Na              -47.67     19.70   67.37  Na
  Na(g)           -61.16     19.70   80.86  Na
  Na2CO3          -11.28     -0.12   11.16  Na2CO3
  Na2CO3:7H2O     -10.05     -0.12    9.94  Na2CO3:7H2O
  Na2O            -56.18     11.24   67.42  Na2O
  Na2SiO3         -14.28      7.93   22.20  Na2SiO3
  Na2U2O7          -4.69     17.90   22.59  Na2U2O7
  Na2UO4(alpha)   -15.45     14.57   30.02  Na2UO4
  Na3H(SO4)2      -24.93    -25.82   -0.89  Na3H(SO4)2
  Na3UO4          -41.99     14.25   56.24  Na3UO4
  Na4Ca(SO4)3:2H2O -21.46    -27.35   -5.89  Na4Ca(SO4)3:2H2O
  Na4SiO4         -51.43     19.17   70.60  Na4SiO4
  Na4UO2(CO3)3    -12.29     -8.25    4.04  Na4UO2(CO3)3
  Na6Si2O7        -74.44     27.09  101.53  Na6Si2O7
  NaFeO2           -9.00     10.88   19.88  NaFeO2
  Nahcolite        -5.59     -5.73   -0.14  NaHCO3
  Natrolite         0.33     18.73   18.39  Na2Al2Si3O10:2H2O
  Natron           -9.70     -0.12    9.59  Na2CO3:10H2O
  Natrosilite     -13.45      4.61   18.07  Na2Si2O5
  NaUO3            -5.31      3.02    8.33  NaUO3
  Nepheline        -2.73     11.02   13.75  NaAlSiO4
  Nesquehonite     -2.84      2.45    5.29  MgCO3:3H2O
  Nontronite-Ca    15.31      3.58  -11.73  Ca.165Fe2Al.33Si3.67H2O12
  Nontronite-H     13.93      1.24  -12.69  H.33Fe2Al.33Si3.67H2O12
  Nontronite-K     14.71      2.70  -12.01  K.33Fe2Al.33Si3.67H2O12
  Nontronite-Mg    15.29      3.52  -11.77  Mg.165Fe2Al.33Si3.67H2O12
  Nontronite-Na    14.77      3.10  -11.68  Na.33Fe2Al.33Si3.67H2O12
  O2(g)           -53.44    -56.33   -2.89  O2
  Okenite          -2.75      7.56   10.31  CaSi2O4(OH)2:H2O
  Oxychloride-Mg  -11.00     14.83   25.83  Mg2Cl(OH)3:4H2O
  Paragonite        4.44     21.82   17.38  NaAl3Si3O10(OH)2
  Pargasite        -6.24     95.46  101.70  NaCa2Al3Mg4Si6O22(OH)2
  Pentahydrite     -6.15     -7.54   -1.39  MgSO4:5H2O
  Periclase        -7.52     13.80   21.33  MgO
  Phlogopite        7.29     44.59   37.30  KAlMg3Si3O10(OH)2
  Picromerite     -15.62    -20.06   -4.44  K2Mg(SO4)2:6H2O
  Pirssonite       -8.61      2.72   11.32  Na2Ca(CO3)2:2H2O
  Polyhalite      -20.05    -34.37  -14.31  K2MgCa2(SO4)4:2H2O
  Portlandite      -8.36     14.19   22.55  Ca(OH)2
  Prehnite          3.07     35.86   32.79  Ca2Al2Si3O10(OH)2
  Pseudowollastonite  -3.09     10.87   13.96  CaSiO3
  Pyrite          -51.96    -76.66  -24.70  FeS2
  Pyrophyllite      3.89      4.18    0.29  Al2Si4O10(OH)2
  Pyrrhotite      -32.37    -36.10   -3.74  FeS
  Quartz            0.72     -3.31   -4.03  SiO2
  Rankinite       -15.89     35.93   51.82  Ca3Si2O7
  Ripidolite-14A    9.84     70.62   60.78  Mg3Fe2Al2Si3O10(OH)8
  Ripidolite-7A     6.46     70.62   64.16  Mg3Fe2Al2Si3O10(OH)8
  Rutherfordine    -3.90     -8.02   -4.12  UO2CO3
  S               -30.02    -75.13  -45.11  S
  S2(g)           -73.93    -81.12   -7.19  S2
  Sanidine_high     2.37      3.18    0.82  KAlSi3O8
  Saponite-Ca       8.32     34.47   26.14  Ca.165Mg3Al.33Si3.67O10(OH)2
  Saponite-H        6.94     32.13   25.18  H.33Mg3Al.33Si3.67O10(OH)2
  Saponite-K        7.72     33.58   25.86  K.33Mg3Al.33Si3.67O10(OH)2
  Saponite-Mg       8.30     34.40   26.10  Mg3.165Al.33Si3.67O10(OH)2
  Saponite-Na       7.78     33.98   26.20  Na.33Mg3Al.33Si3.67O10(OH)2
  Schoepite        -1.50      3.33    4.83  UO3:2H2O
  Schoepite-dehy(.393)  -3.39      3.33    6.72  UO3:.393H2O
  Schoepite-dehy(.648)  -2.87      3.33    6.21  UO3:.648H2O
  Schoepite-dehy(.85)  -1.77      3.33    5.10  UO3:.85H2O
  Schoepite-dehy(.9)  -1.69      3.33    5.02  UO3:.9H2O
  Schoepite-dehy(1.0)  -1.77      3.33    5.10  UO3:H2O
  Scolecite         5.93     21.67   15.75  CaAl2Si3O10:3H2O
  Sepiolite         5.11     35.34   30.22  Mg4Si6O15(OH)2:6H2O
  Si              -95.85     53.02  148.86  Si
  Si(g)          -166.92     53.02  219.94  Si
  Siderite         -0.27     -0.49   -0.22  FeCO3
  Sillimanite      -2.13     14.11   16.24  Al2SiO5
  SiO2(am)         -0.57     -3.31   -2.74  SiO2
  Sklodowskite      0.05     13.84   13.79  Mg(H3O)2(UO2)2(SiO4)2:4H2O
  Smectite-high-Fe-Mg   6.18     23.45   17.27  Ca.025Na.1K.2Fe.5Fe.2Mg1.15Al1.25Si3.5H2O12
  Smectite-low-Fe-Mg   6.00     16.89   10.89  Ca.02Na.15K.2Fe.29Fe.16Mg.9Al1.25Si3.75H2O12
  SO2(g)          -30.86    -30.68    0.18  SO2
  Soddyite          2.96      3.35    0.39  (UO2)2SiO4:2H2O
  Spinel           -6.38     31.22   37.61  Al2MgO4
  Starkeyite       -6.54     -7.54   -1.00  MgSO4:4H2O
  Stilbite         10.84     11.65    0.81  Ca1.019Na.136K.006Al2.18Si6.82O18:7.33H2O
  Sylvite          -9.19     -8.37    0.83  KCl
  Syngenite       -12.07    -19.67   -7.60  K2Ca(SO4)2:H2O
  Tachyhydrite    -52.00    -34.86   17.14  Mg2CaCl6:12H2O
  Talc              7.17     28.16   20.99  Mg3Si4O10(OH)2
  Thenardite       -9.74    -10.10   -0.36  Na2SO4
  Thermonatrite   -11.05     -0.12   10.94  Na2CO3:H2O
  Tobermorite-11A -14.33     51.05   65.39  Ca5Si6H11O22.5
  Tobermorite-14A -12.56     51.05   63.61  Ca5Si6H21O27.5
  Tobermorite-9A  -17.80     51.05   68.86  Ca5Si6H6O20
  Tremolite         9.96     70.88   60.93  Ca2Mg5Si8O22(OH)2
  Tridymite         0.53     -3.31   -3.84  SiO2
  Troilite        -32.26    -36.10   -3.84  FeS
  Trona-K         -19.86     -8.27   11.59  K2NaH(CO3)2:2H2O
  U              -124.94     87.82  212.77  U
  U(CO3)2         -32.68    -25.16    7.52  U(CO3)2
  U(g)           -210.50     87.82  298.32  U
  U(OH)2SO4       -20.72    -23.79   -3.07  U(OH)2SO4
  U(SO3)2         -45.27    -82.04  -36.77  U(SO3)2
  U(SO4)2         -33.60    -45.13  -11.53  U(SO4)2
  U(SO4)2:4H2O    -33.58    -45.13  -11.55  U(SO4)2:4H2O
  U(SO4)2:8H2O    -32.56    -45.13  -12.57  U(SO4)2:8H2O
  U2C3           -274.24    180.98  455.21  U2C3
  U2Cl10(g)      -215.55   -132.95   82.60  U2Cl10
  U2Cl8(g)       -189.37   -107.10   82.27  U2Cl8
  U2O2Cl5         -88.11    -68.93   19.19  U2O2Cl5
  U2S3           -185.82   -179.34    6.48  U2S3
  U3S5           -275.35   -275.72   -0.37  U3S5
  U5O12Cl          -7.00    -25.79  -18.79  U5O12Cl
  UC             -126.79     68.00  194.79  UC
  UC1.94(alpha)  -146.84    110.28  257.12  UC1.94
  UCl(g)         -180.80     40.95  221.75  UCl
  UCl2(g)        -149.63     34.11  183.74  UCl2
  UCl3            -70.51    -57.54   12.97  UCl3
  UCl3(g)        -116.12    -57.54   58.58  UCl3
  UCl4            -75.46    -53.55   21.92  UCl4
  UCl4(g)         -99.90    -53.55   46.35  UCl4
  UCl5           -103.70    -66.47   37.23  UCl5
  UCl5(g)        -120.92    -66.47   54.45  UCl5
  UCl6           -130.81    -73.31   57.50  UCl6
  UCl6(g)        -136.68    -73.31   63.37  UCl6
  UH3(beta)      -134.49     65.27  199.77  UH3
  UO(g)          -151.99     59.66  211.65  UO
  UO2(am)          -2.56     -2.45    0.11  UO2
  UO2(g)          -94.10     31.50  125.60  UO2
  UO2(OH)2(beta)   -1.62      3.33    4.95  UO2(OH)2
  UO2.25            2.31     -2.53   -4.84  UO2.25
  UO2.25(beta)      2.23     -2.53   -4.76  UO2.25
  UO2.3333(beta)    4.04    -23.68  -27.71  (UO2.3333)2
  UO2.6667          1.15    -42.46  -43.60  (UO2.6667)2
  UO2Cl           -14.84    -15.38   -0.53  UO2Cl
  UO2Cl2          -34.33    -22.22   12.11  UO2Cl2
  UO2Cl2(g)       -70.15    -22.22   47.93  UO2Cl2
  UO2Cl2:3H2O     -27.83    -22.22    5.61  UO2Cl2:3H2O
  UO2Cl2:H2O      -30.50    -22.22    8.28  UO2Cl2:H2O
  UO2ClOH:2H2O    -11.75     -9.44    2.30  UO2ClOH:2H2O
  UO2CO3           -3.89     -8.02   -4.13  UO2CO3
  UO2SO3          -20.47    -36.46  -15.99  UO2SO3
  UO2SO4          -19.94    -18.01    1.93  UO2SO4
  UO2SO4:2.5H2O   -16.51    -18.01   -1.50  UO2SO4:2.5H2O
  UO2SO4:3.5H2O   -16.52    -18.01   -1.49  UO2SO4:3.5H2O
  UO2SO4:3H2O     -16.60    -18.01   -1.41  UO2SO4:3H2O
  UO2SO4:H2O      -11.94    -18.01   -6.07  UO2SO4:H2O
  UO3(alpha)       -5.31      3.33    8.64  UO3
  UO3(beta)        -4.98      3.33    8.31  UO3
  UO3(g)          -67.62      3.33   70.95  UO3
  UO3(gamma)       -4.38      3.33    7.71  UO3
  UO3:.9H2O(alpha)  -1.69      3.33    5.02  UO3:.9H2O
  UO3:2H2O         -1.50      3.33    4.84  UO3:2H2O
  UOCl            -42.36    -31.99   10.37  UOCl
  UOCl2           -33.42    -28.00    5.42  UOCl2
  UOCl3           -53.51    -40.93   12.58  UOCl3
  Uraninite         2.38     -2.45   -4.83  UO2
  Uranophane       -3.06     14.23   17.29  Ca(UO2)2(SiO3)2(OH)2
  US              -98.74    -52.10   46.64  US
  US1.9           -92.73    -95.04   -2.31  US1.9
  US2             -94.02    -96.38   -2.36  US2
  US3            -120.88   -137.57  -16.69  US3
  Wairakite         0.44     18.36   17.92  CaAl2Si4O10(OH)4
  Weeksite        -19.76     -4.39   15.38  K2(UO2)2(Si2O5)3:4H2O
  Wollastonite     -2.85     10.87   13.72  CaSiO3
  Wustite          -2.71      9.69   12.40  Fe.947O
  Xonotlite       -26.50     65.24   91.74  Ca6Si6O17(OH)2
  Zoisite           1.43     44.57   43.14  Ca2Al3(SiO4)3OH

**For a gas, SI = log10(fugacity). Fugacity = pressure * phi / 1 atm.
  For ideal gases, phi = 1.

------------------
End of simulation.
------------------

------------------------------------
Reading input data for simulation 7.
------------------------------------

----------------------------------
End of Run after 0.077586 Seconds.
----------------------------------

